version 2
run General-0-20161024-23:15:47-3318
attr configname General
attr datetime 20161024-23:15:47
attr experiment General
attr inifile omnetpp.ini
attr iterationvars ""
attr iterationvars2 $repetition=0
attr measurement ""
attr network PacketBounce
attr processid 3318
attr repetition 0
attr replication #0
attr resultdir results
attr runnumber 0
attr seedset 0

scalar PacketBounce.etherSwitch1.relayUnit 	"passback frame frequency" 	0
scalar PacketBounce.etherSwitch1.relayUnit 	"processed frames" 	2505
scalar PacketBounce.etherSwitch1.relayUnit 	"discarded frames" 	0
statistic PacketBounce.etherSwitch1.relayUnit 	"Pass back hop distribution"
field count 0
field mean -nan
field stddev -nan
field sum 0
field sqrsum 0
field min -nan
field max -nan
attr type  int
bin	-INF	0
bin	-4	0
bin	-3	0
bin	-2	0
bin	-1	0
bin	0	0
bin	1	0
bin	2	0
bin	3	0
bin	4	0
statistic PacketBounce.etherSwitch1.relayUnit 	"Total hop num distribution"
field count 0
field mean -nan
field stddev -nan
field sum 0
field sqrsum 0
field min -nan
field max -nan
attr type  int
bin	-INF	0
bin	0	0
bin	1	0
bin	2	0
bin	3	0
bin	4	0
bin	5	0
bin	6	0
bin	7	0
bin	8	0
bin	9	0
bin	10	0
bin	11	0
bin	12	0
bin	13	0
bin	14	0
bin	15	0
bin	16	0
bin	17	0
bin	18	0
bin	19	0
bin	20	0
bin	21	0
bin	22	0
bin	23	0
bin	24	0
bin	25	0
bin	26	0
bin	27	0
bin	28	0
bin	29	0
bin	30	0
bin	31	0
bin	32	0
bin	33	0
bin	34	0
bin	35	0
bin	36	0
bin	37	0
bin	38	0
bin	39	0
bin	40	0
bin	41	0
bin	42	0
bin	43	0
bin	44	0
bin	45	0
bin	46	0
bin	47	0
bin	48	0
bin	49	0
bin	50	0
bin	51	0
bin	52	0
bin	53	0
bin	54	0
bin	55	0
bin	56	0
bin	57	0
bin	58	0
bin	59	0
bin	60	0
bin	61	0
bin	62	0
bin	63	0
bin	64	0
bin	65	0
bin	66	0
bin	67	0
bin	68	0
bin	69	0
bin	70	0
bin	71	0
bin	72	0
bin	73	0
bin	74	0
bin	75	0
bin	76	0
bin	77	0
bin	78	0
bin	79	0
bin	80	0
bin	81	0
bin	82	0
bin	83	0
bin	84	0
bin	85	0
bin	86	0
bin	87	0
bin	88	0
bin	89	0
bin	90	0
bin	91	0
bin	92	0
bin	93	0
bin	94	0
bin	95	0
bin	96	0
bin	97	0
bin	98	0
bin	99	0
bin	100	0
scalar PacketBounce.etherSwitch1.eth[0].queue.pauseQueue 	queueLength:max 	0
attr interpolationmode  sample-hold
attr title  "queue length, max"
scalar PacketBounce.etherSwitch1.eth[0].queue.pauseQueue 	queueLength:timeavg 	0
attr interpolationmode  sample-hold
attr title  "queue length, timeavg"
statistic PacketBounce.etherSwitch1.eth[0].queue.pauseQueue 	queueingTime:histogram
field count 0
field mean -nan
field stddev -nan
field sum 0
field sqrsum 0
field min -nan
field max -nan
attr interpolationmode  none
attr title  "queueing time, histogram"
bin	-INF	0
bin	-0.5	0
bin	-0.46666666666667	0
bin	-0.43333333333333	0
bin	-0.4	0
bin	-0.36666666666667	0
bin	-0.33333333333333	0
bin	-0.3	0
bin	-0.26666666666667	0
bin	-0.23333333333333	0
bin	-0.2	0
bin	-0.16666666666667	0
bin	-0.13333333333333	0
bin	-0.1	0
bin	-0.066666666666667	0
bin	-0.033333333333333	0
bin	0	0
bin	0.033333333333333	0
bin	0.066666666666667	0
bin	0.1	0
bin	0.13333333333333	0
bin	0.16666666666667	0
bin	0.2	0
bin	0.23333333333333	0
bin	0.26666666666667	0
bin	0.3	0
bin	0.33333333333333	0
bin	0.36666666666667	0
bin	0.4	0
bin	0.43333333333333	0
bin	0.46666666666667	0
bin	0.5	0
scalar PacketBounce.etherSwitch1.eth[0].queue.pauseQueue 	dropPk:count 	0
attr interpolationmode  none
attr source  dropPkByQueue
attr title  "dropped packets, count"
scalar PacketBounce.etherSwitch1.eth[0].queue.pauseQueue 	dropPk:sum(packetBytes) 	0
attr interpolationmode  none
attr source  dropPkByQueue
attr title  "dropped packets, sum(packetBytes)"
scalar PacketBounce.etherSwitch1.eth[0].queue.pauseQueue 	rcvdPk:count 	0
attr interpolationmode  none
attr title  "received packets, count"
scalar PacketBounce.etherSwitch1.eth[0].queue.pauseQueue 	rcvdPk:sum(packetBytes) 	0
attr interpolationmode  none
attr title  "received packets, sum(packetBytes)"
scalar PacketBounce.etherSwitch1.eth[0].queue.passBackQueue 	queueLength:max 	0
attr interpolationmode  sample-hold
attr title  "queue length, max"
scalar PacketBounce.etherSwitch1.eth[0].queue.passBackQueue 	queueLength:timeavg 	0
attr interpolationmode  sample-hold
attr title  "queue length, timeavg"
statistic PacketBounce.etherSwitch1.eth[0].queue.passBackQueue 	queueingTime:histogram
field count 0
field mean -nan
field stddev -nan
field sum 0
field sqrsum 0
field min -nan
field max -nan
attr interpolationmode  none
attr title  "queueing time, histogram"
bin	-INF	0
bin	-0.5	0
bin	-0.46666666666667	0
bin	-0.43333333333333	0
bin	-0.4	0
bin	-0.36666666666667	0
bin	-0.33333333333333	0
bin	-0.3	0
bin	-0.26666666666667	0
bin	-0.23333333333333	0
bin	-0.2	0
bin	-0.16666666666667	0
bin	-0.13333333333333	0
bin	-0.1	0
bin	-0.066666666666667	0
bin	-0.033333333333333	0
bin	0	0
bin	0.033333333333333	0
bin	0.066666666666667	0
bin	0.1	0
bin	0.13333333333333	0
bin	0.16666666666667	0
bin	0.2	0
bin	0.23333333333333	0
bin	0.26666666666667	0
bin	0.3	0
bin	0.33333333333333	0
bin	0.36666666666667	0
bin	0.4	0
bin	0.43333333333333	0
bin	0.46666666666667	0
bin	0.5	0
scalar PacketBounce.etherSwitch1.eth[0].queue.passBackQueue 	dropPk:count 	0
attr interpolationmode  none
attr source  dropPkByQueue
attr title  "dropped packets, count"
scalar PacketBounce.etherSwitch1.eth[0].queue.passBackQueue 	dropPk:sum(packetBytes) 	0
attr interpolationmode  none
attr source  dropPkByQueue
attr title  "dropped packets, sum(packetBytes)"
scalar PacketBounce.etherSwitch1.eth[0].queue.passBackQueue 	rcvdPk:count 	0
attr interpolationmode  none
attr title  "received packets, count"
scalar PacketBounce.etherSwitch1.eth[0].queue.passBackQueue 	rcvdPk:sum(packetBytes) 	0
attr interpolationmode  none
attr title  "received packets, sum(packetBytes)"
scalar PacketBounce.etherSwitch1.eth[0].queue.dataQueue 	queueLength:max 	0
attr interpolationmode  sample-hold
attr title  "queue length, max"
scalar PacketBounce.etherSwitch1.eth[0].queue.dataQueue 	queueLength:timeavg 	0
attr interpolationmode  sample-hold
attr title  "queue length, timeavg"
statistic PacketBounce.etherSwitch1.eth[0].queue.dataQueue 	queueingTime:histogram
field count 0
field mean -nan
field stddev -nan
field sum 0
field sqrsum 0
field min -nan
field max -nan
attr interpolationmode  none
attr title  "queueing time, histogram"
bin	-INF	0
bin	-0.5	0
bin	-0.46666666666667	0
bin	-0.43333333333333	0
bin	-0.4	0
bin	-0.36666666666667	0
bin	-0.33333333333333	0
bin	-0.3	0
bin	-0.26666666666667	0
bin	-0.23333333333333	0
bin	-0.2	0
bin	-0.16666666666667	0
bin	-0.13333333333333	0
bin	-0.1	0
bin	-0.066666666666667	0
bin	-0.033333333333333	0
bin	0	0
bin	0.033333333333333	0
bin	0.066666666666667	0
bin	0.1	0
bin	0.13333333333333	0
bin	0.16666666666667	0
bin	0.2	0
bin	0.23333333333333	0
bin	0.26666666666667	0
bin	0.3	0
bin	0.33333333333333	0
bin	0.36666666666667	0
bin	0.4	0
bin	0.43333333333333	0
bin	0.46666666666667	0
bin	0.5	0
scalar PacketBounce.etherSwitch1.eth[0].queue.dataQueue 	dropPk:count 	0
attr interpolationmode  none
attr source  dropPkByQueue
attr title  "dropped packets, count"
scalar PacketBounce.etherSwitch1.eth[0].queue.dataQueue 	dropPk:sum(packetBytes) 	0
attr interpolationmode  none
attr source  dropPkByQueue
attr title  "dropped packets, sum(packetBytes)"
scalar PacketBounce.etherSwitch1.eth[0].queue.dataQueue 	rcvdPk:count 	0
attr interpolationmode  none
attr title  "received packets, count"
scalar PacketBounce.etherSwitch1.eth[0].queue.dataQueue 	rcvdPk:sum(packetBytes) 	0
attr interpolationmode  none
attr title  "received packets, sum(packetBytes)"
scalar PacketBounce.etherSwitch1.eth[0].mac 	"simulated time" 	0.838529736
scalar PacketBounce.etherSwitch1.eth[0].mac 	full-duplex 	1
scalar PacketBounce.etherSwitch1.eth[0].mac 	"frames/sec sent" 	0
scalar PacketBounce.etherSwitch1.eth[0].mac 	"frames/sec rcvd" 	2987.3716965
scalar PacketBounce.etherSwitch1.eth[0].mac 	"bits/sec sent" 	0
scalar PacketBounce.etherSwitch1.eth[0].mac 	"bits/sec rcvd" 	36278641.882296
scalar PacketBounce.etherSwitch1.eth[0].mac 	"rx channel idle (%)" 	96.353016632913
scalar PacketBounce.etherSwitch1.eth[0].mac 	"rx channel utilization (%)" 	3.6469833670872
scalar PacketBounce.etherSwitch1.eth[0].mac 	"rx channel collision (%)" 	0
scalar PacketBounce.etherSwitch1.eth[0].mac 	collisions 	0
scalar PacketBounce.etherSwitch1.eth[0].mac 	backoffs 	0
scalar PacketBounce.etherSwitch1.eth[0].mac 	droppedPkNotForUs:count 	0
attr interpolationmode  none
attr source  dropPkNotForUs
attr title  "packets dropped/not for us, count"
scalar PacketBounce.etherSwitch1.eth[0].mac 	droppedPkNotForUs:sum(packetBytes) 	0
attr interpolationmode  none
attr source  dropPkNotForUs
attr title  "packets dropped/not for us, sum(packetBytes)"
scalar PacketBounce.etherSwitch1.eth[0].mac 	droppedPkIfaceDown:count 	0
attr interpolationmode  none
attr source  dropPkIfaceDown
attr title  "packets dropped/interface down, count"
scalar PacketBounce.etherSwitch1.eth[0].mac 	droppedPkIfaceDown:sum(packetBytes) 	0
attr interpolationmode  none
attr source  dropPkIfaceDown
attr title  "packets dropped/interface down, sum(packetBytes)"
scalar PacketBounce.etherSwitch1.eth[0].mac 	droppedPkBitError:count 	0
attr interpolationmode  none
attr source  dropPkBitError
attr title  "packets dropped/bit error, count"
scalar PacketBounce.etherSwitch1.eth[0].mac 	droppedPkBitError:sum(packetBytes) 	0
attr interpolationmode  none
attr source  dropPkBitError
attr title  "packets dropped/bit error, sum(packetBytes)"
scalar PacketBounce.etherSwitch1.eth[0].mac 	rxPkFromHL:count 	0
attr interpolationmode  none
attr source  rxPkFromHL
attr title  "packet bytes from higher layer, count"
scalar PacketBounce.etherSwitch1.eth[0].mac 	rxPkFromHL:sum(packetBytes) 	0
attr interpolationmode  none
attr source  rxPkFromHL
attr title  "packet bytes from higher layer, sum(packetBytes)"
scalar PacketBounce.etherSwitch1.eth[0].mac 	rxPausePkUnits:count 	0
attr interpolationmode  none
attr title  "pause units received, count"
scalar PacketBounce.etherSwitch1.eth[0].mac 	rxPausePkUnits:sum 	0
attr interpolationmode  none
attr title  "pause units received, sum"
scalar PacketBounce.etherSwitch1.eth[0].mac 	txPausePkUnits:count 	0
attr interpolationmode  none
attr title  "pause units sent, count"
scalar PacketBounce.etherSwitch1.eth[0].mac 	txPausePkUnits:sum 	0
attr interpolationmode  none
attr title  "pause units sent, sum"
scalar PacketBounce.etherSwitch1.eth[0].mac 	rxPkOk:count 	2505
attr interpolationmode  none
attr source  rxPkOk
attr title  "packets received OK, count"
scalar PacketBounce.etherSwitch1.eth[0].mac 	rxPkOk:sum(packetBytes) 	3802590
attr interpolationmode  none
attr source  rxPkOk
attr title  "packets received OK, sum(packetBytes)"
scalar PacketBounce.etherSwitch1.eth[0].mac 	txPk:count 	0
attr interpolationmode  none
attr source  txPk
attr title  "packets transmitted, count"
scalar PacketBounce.etherSwitch1.eth[0].mac 	txPk:sum(packetBytes) 	0
attr interpolationmode  none
attr source  txPk
attr title  "packets transmitted, sum(packetBytes)"
scalar PacketBounce.etherSwitch1.eth[0].mac 	backoff:count 	0
attr interpolationmode  none
attr title  "backoff, count"
scalar PacketBounce.etherSwitch1.eth[0].mac 	collision:count 	0
attr interpolationmode  none
attr title  "collision, count"
scalar PacketBounce.etherSwitch1.eth[0].mac 	passedUpPk:count 	2505
attr interpolationmode  none
attr source  packetSentToUpper
attr title  "packets passed to higher layer, count"
scalar PacketBounce.etherSwitch1.eth[0].mac 	passedUpPk:sum(packetBytes) 	3802590
attr interpolationmode  none
attr source  packetSentToUpper
attr title  "packets passed to higher layer, sum(packetBytes)"
scalar PacketBounce.etherSwitch1.eth[1].queue.pauseQueue 	queueLength:max 	0
attr interpolationmode  sample-hold
attr title  "queue length, max"
scalar PacketBounce.etherSwitch1.eth[1].queue.pauseQueue 	queueLength:timeavg 	0
attr interpolationmode  sample-hold
attr title  "queue length, timeavg"
statistic PacketBounce.etherSwitch1.eth[1].queue.pauseQueue 	queueingTime:histogram
field count 0
field mean -nan
field stddev -nan
field sum 0
field sqrsum 0
field min -nan
field max -nan
attr interpolationmode  none
attr title  "queueing time, histogram"
bin	-INF	0
bin	-0.5	0
bin	-0.46666666666667	0
bin	-0.43333333333333	0
bin	-0.4	0
bin	-0.36666666666667	0
bin	-0.33333333333333	0
bin	-0.3	0
bin	-0.26666666666667	0
bin	-0.23333333333333	0
bin	-0.2	0
bin	-0.16666666666667	0
bin	-0.13333333333333	0
bin	-0.1	0
bin	-0.066666666666667	0
bin	-0.033333333333333	0
bin	0	0
bin	0.033333333333333	0
bin	0.066666666666667	0
bin	0.1	0
bin	0.13333333333333	0
bin	0.16666666666667	0
bin	0.2	0
bin	0.23333333333333	0
bin	0.26666666666667	0
bin	0.3	0
bin	0.33333333333333	0
bin	0.36666666666667	0
bin	0.4	0
bin	0.43333333333333	0
bin	0.46666666666667	0
bin	0.5	0
scalar PacketBounce.etherSwitch1.eth[1].queue.pauseQueue 	dropPk:count 	0
attr interpolationmode  none
attr source  dropPkByQueue
attr title  "dropped packets, count"
scalar PacketBounce.etherSwitch1.eth[1].queue.pauseQueue 	dropPk:sum(packetBytes) 	0
attr interpolationmode  none
attr source  dropPkByQueue
attr title  "dropped packets, sum(packetBytes)"
scalar PacketBounce.etherSwitch1.eth[1].queue.pauseQueue 	rcvdPk:count 	0
attr interpolationmode  none
attr title  "received packets, count"
scalar PacketBounce.etherSwitch1.eth[1].queue.pauseQueue 	rcvdPk:sum(packetBytes) 	0
attr interpolationmode  none
attr title  "received packets, sum(packetBytes)"
scalar PacketBounce.etherSwitch1.eth[1].queue.passBackQueue 	queueLength:max 	0
attr interpolationmode  sample-hold
attr title  "queue length, max"
scalar PacketBounce.etherSwitch1.eth[1].queue.passBackQueue 	queueLength:timeavg 	0
attr interpolationmode  sample-hold
attr title  "queue length, timeavg"
statistic PacketBounce.etherSwitch1.eth[1].queue.passBackQueue 	queueingTime:histogram
field count 0
field mean -nan
field stddev -nan
field sum 0
field sqrsum 0
field min -nan
field max -nan
attr interpolationmode  none
attr title  "queueing time, histogram"
bin	-INF	0
bin	-0.5	0
bin	-0.46666666666667	0
bin	-0.43333333333333	0
bin	-0.4	0
bin	-0.36666666666667	0
bin	-0.33333333333333	0
bin	-0.3	0
bin	-0.26666666666667	0
bin	-0.23333333333333	0
bin	-0.2	0
bin	-0.16666666666667	0
bin	-0.13333333333333	0
bin	-0.1	0
bin	-0.066666666666667	0
bin	-0.033333333333333	0
bin	0	0
bin	0.033333333333333	0
bin	0.066666666666667	0
bin	0.1	0
bin	0.13333333333333	0
bin	0.16666666666667	0
bin	0.2	0
bin	0.23333333333333	0
bin	0.26666666666667	0
bin	0.3	0
bin	0.33333333333333	0
bin	0.36666666666667	0
bin	0.4	0
bin	0.43333333333333	0
bin	0.46666666666667	0
bin	0.5	0
scalar PacketBounce.etherSwitch1.eth[1].queue.passBackQueue 	dropPk:count 	0
attr interpolationmode  none
attr source  dropPkByQueue
attr title  "dropped packets, count"
scalar PacketBounce.etherSwitch1.eth[1].queue.passBackQueue 	dropPk:sum(packetBytes) 	0
attr interpolationmode  none
attr source  dropPkByQueue
attr title  "dropped packets, sum(packetBytes)"
scalar PacketBounce.etherSwitch1.eth[1].queue.passBackQueue 	rcvdPk:count 	0
attr interpolationmode  none
attr title  "received packets, count"
scalar PacketBounce.etherSwitch1.eth[1].queue.passBackQueue 	rcvdPk:sum(packetBytes) 	0
attr interpolationmode  none
attr title  "received packets, sum(packetBytes)"
scalar PacketBounce.etherSwitch1.eth[1].queue.dataQueue 	queueLength:max 	1
attr interpolationmode  sample-hold
attr title  "queue length, max"
scalar PacketBounce.etherSwitch1.eth[1].queue.dataQueue 	queueLength:timeavg 	0
attr interpolationmode  sample-hold
attr title  "queue length, timeavg"
statistic PacketBounce.etherSwitch1.eth[1].queue.dataQueue 	queueingTime:histogram
field count 2505
field mean 0
field stddev 0
field sum 0
field sqrsum 0
field min 0
field max 0
attr interpolationmode  none
attr title  "queueing time, histogram"
bin	-INF	0
bin	-0.5	0
bin	-0.46666666666667	0
bin	-0.43333333333333	0
bin	-0.4	0
bin	-0.36666666666667	0
bin	-0.33333333333333	0
bin	-0.3	0
bin	-0.26666666666667	0
bin	-0.23333333333333	0
bin	-0.2	0
bin	-0.16666666666667	0
bin	-0.13333333333333	0
bin	-0.1	0
bin	-0.066666666666667	0
bin	-0.033333333333333	0
bin	0	2505
bin	0.033333333333333	0
bin	0.066666666666667	0
bin	0.1	0
bin	0.13333333333333	0
bin	0.16666666666667	0
bin	0.2	0
bin	0.23333333333333	0
bin	0.26666666666667	0
bin	0.3	0
bin	0.33333333333333	0
bin	0.36666666666667	0
bin	0.4	0
bin	0.43333333333333	0
bin	0.46666666666667	0
bin	0.5	0
scalar PacketBounce.etherSwitch1.eth[1].queue.dataQueue 	dropPk:count 	0
attr interpolationmode  none
attr source  dropPkByQueue
attr title  "dropped packets, count"
scalar PacketBounce.etherSwitch1.eth[1].queue.dataQueue 	dropPk:sum(packetBytes) 	0
attr interpolationmode  none
attr source  dropPkByQueue
attr title  "dropped packets, sum(packetBytes)"
scalar PacketBounce.etherSwitch1.eth[1].queue.dataQueue 	rcvdPk:count 	2505
attr interpolationmode  none
attr title  "received packets, count"
scalar PacketBounce.etherSwitch1.eth[1].queue.dataQueue 	rcvdPk:sum(packetBytes) 	3802590
attr interpolationmode  none
attr title  "received packets, sum(packetBytes)"
scalar PacketBounce.etherSwitch1.eth[1].mac 	"simulated time" 	0.838529736
scalar PacketBounce.etherSwitch1.eth[1].mac 	full-duplex 	1
scalar PacketBounce.etherSwitch1.eth[1].mac 	"frames/sec sent" 	2987.3716965
scalar PacketBounce.etherSwitch1.eth[1].mac 	"frames/sec rcvd" 	0
scalar PacketBounce.etherSwitch1.eth[1].mac 	"bits/sec sent" 	36278641.882296
scalar PacketBounce.etherSwitch1.eth[1].mac 	"bits/sec rcvd" 	0
scalar PacketBounce.etherSwitch1.eth[1].mac 	"rx channel idle (%)" 	100
scalar PacketBounce.etherSwitch1.eth[1].mac 	"rx channel utilization (%)" 	0
scalar PacketBounce.etherSwitch1.eth[1].mac 	"rx channel collision (%)" 	0
scalar PacketBounce.etherSwitch1.eth[1].mac 	collisions 	0
scalar PacketBounce.etherSwitch1.eth[1].mac 	backoffs 	0
scalar PacketBounce.etherSwitch1.eth[1].mac 	droppedPkNotForUs:count 	0
attr interpolationmode  none
attr source  dropPkNotForUs
attr title  "packets dropped/not for us, count"
scalar PacketBounce.etherSwitch1.eth[1].mac 	droppedPkNotForUs:sum(packetBytes) 	0
attr interpolationmode  none
attr source  dropPkNotForUs
attr title  "packets dropped/not for us, sum(packetBytes)"
scalar PacketBounce.etherSwitch1.eth[1].mac 	droppedPkIfaceDown:count 	0
attr interpolationmode  none
attr source  dropPkIfaceDown
attr title  "packets dropped/interface down, count"
scalar PacketBounce.etherSwitch1.eth[1].mac 	droppedPkIfaceDown:sum(packetBytes) 	0
attr interpolationmode  none
attr source  dropPkIfaceDown
attr title  "packets dropped/interface down, sum(packetBytes)"
scalar PacketBounce.etherSwitch1.eth[1].mac 	droppedPkBitError:count 	0
attr interpolationmode  none
attr source  dropPkBitError
attr title  "packets dropped/bit error, count"
scalar PacketBounce.etherSwitch1.eth[1].mac 	droppedPkBitError:sum(packetBytes) 	0
attr interpolationmode  none
attr source  dropPkBitError
attr title  "packets dropped/bit error, sum(packetBytes)"
scalar PacketBounce.etherSwitch1.eth[1].mac 	rxPkFromHL:count 	2505
attr interpolationmode  none
attr source  rxPkFromHL
attr title  "packet bytes from higher layer, count"
scalar PacketBounce.etherSwitch1.eth[1].mac 	rxPkFromHL:sum(packetBytes) 	3802590
attr interpolationmode  none
attr source  rxPkFromHL
attr title  "packet bytes from higher layer, sum(packetBytes)"
scalar PacketBounce.etherSwitch1.eth[1].mac 	rxPausePkUnits:count 	0
attr interpolationmode  none
attr title  "pause units received, count"
scalar PacketBounce.etherSwitch1.eth[1].mac 	rxPausePkUnits:sum 	0
attr interpolationmode  none
attr title  "pause units received, sum"
scalar PacketBounce.etherSwitch1.eth[1].mac 	txPausePkUnits:count 	0
attr interpolationmode  none
attr title  "pause units sent, count"
scalar PacketBounce.etherSwitch1.eth[1].mac 	txPausePkUnits:sum 	0
attr interpolationmode  none
attr title  "pause units sent, sum"
scalar PacketBounce.etherSwitch1.eth[1].mac 	rxPkOk:count 	0
attr interpolationmode  none
attr source  rxPkOk
attr title  "packets received OK, count"
scalar PacketBounce.etherSwitch1.eth[1].mac 	rxPkOk:sum(packetBytes) 	0
attr interpolationmode  none
attr source  rxPkOk
attr title  "packets received OK, sum(packetBytes)"
scalar PacketBounce.etherSwitch1.eth[1].mac 	txPk:count 	2505
attr interpolationmode  none
attr source  txPk
attr title  "packets transmitted, count"
scalar PacketBounce.etherSwitch1.eth[1].mac 	txPk:sum(packetBytes) 	3802590
attr interpolationmode  none
attr source  txPk
attr title  "packets transmitted, sum(packetBytes)"
scalar PacketBounce.etherSwitch1.eth[1].mac 	backoff:count 	0
attr interpolationmode  none
attr title  "backoff, count"
scalar PacketBounce.etherSwitch1.eth[1].mac 	collision:count 	0
attr interpolationmode  none
attr title  "collision, count"
scalar PacketBounce.etherSwitch1.eth[1].mac 	passedUpPk:count 	0
attr interpolationmode  none
attr source  packetSentToUpper
attr title  "packets passed to higher layer, count"
scalar PacketBounce.etherSwitch1.eth[1].mac 	passedUpPk:sum(packetBytes) 	0
attr interpolationmode  none
attr source  packetSentToUpper
attr title  "packets passed to higher layer, sum(packetBytes)"
scalar PacketBounce.etherSwitch2.relayUnit 	"passback frame frequency" 	0
scalar PacketBounce.etherSwitch2.relayUnit 	"processed frames" 	2505
scalar PacketBounce.etherSwitch2.relayUnit 	"discarded frames" 	0
statistic PacketBounce.etherSwitch2.relayUnit 	"Pass back hop distribution"
field count 0
field mean -nan
field stddev -nan
field sum 0
field sqrsum 0
field min -nan
field max -nan
attr type  int
bin	-INF	0
bin	-4	0
bin	-3	0
bin	-2	0
bin	-1	0
bin	0	0
bin	1	0
bin	2	0
bin	3	0
bin	4	0
statistic PacketBounce.etherSwitch2.relayUnit 	"Total hop num distribution"
field count 0
field mean -nan
field stddev -nan
field sum 0
field sqrsum 0
field min -nan
field max -nan
attr type  int
bin	-INF	0
bin	0	0
bin	1	0
bin	2	0
bin	3	0
bin	4	0
bin	5	0
bin	6	0
bin	7	0
bin	8	0
bin	9	0
bin	10	0
bin	11	0
bin	12	0
bin	13	0
bin	14	0
bin	15	0
bin	16	0
bin	17	0
bin	18	0
bin	19	0
bin	20	0
bin	21	0
bin	22	0
bin	23	0
bin	24	0
bin	25	0
bin	26	0
bin	27	0
bin	28	0
bin	29	0
bin	30	0
bin	31	0
bin	32	0
bin	33	0
bin	34	0
bin	35	0
bin	36	0
bin	37	0
bin	38	0
bin	39	0
bin	40	0
bin	41	0
bin	42	0
bin	43	0
bin	44	0
bin	45	0
bin	46	0
bin	47	0
bin	48	0
bin	49	0
bin	50	0
bin	51	0
bin	52	0
bin	53	0
bin	54	0
bin	55	0
bin	56	0
bin	57	0
bin	58	0
bin	59	0
bin	60	0
bin	61	0
bin	62	0
bin	63	0
bin	64	0
bin	65	0
bin	66	0
bin	67	0
bin	68	0
bin	69	0
bin	70	0
bin	71	0
bin	72	0
bin	73	0
bin	74	0
bin	75	0
bin	76	0
bin	77	0
bin	78	0
bin	79	0
bin	80	0
bin	81	0
bin	82	0
bin	83	0
bin	84	0
bin	85	0
bin	86	0
bin	87	0
bin	88	0
bin	89	0
bin	90	0
bin	91	0
bin	92	0
bin	93	0
bin	94	0
bin	95	0
bin	96	0
bin	97	0
bin	98	0
bin	99	0
bin	100	0
scalar PacketBounce.etherSwitch2.eth[0].queue.pauseQueue 	queueLength:max 	0
attr interpolationmode  sample-hold
attr title  "queue length, max"
scalar PacketBounce.etherSwitch2.eth[0].queue.pauseQueue 	queueLength:timeavg 	0
attr interpolationmode  sample-hold
attr title  "queue length, timeavg"
statistic PacketBounce.etherSwitch2.eth[0].queue.pauseQueue 	queueingTime:histogram
field count 0
field mean -nan
field stddev -nan
field sum 0
field sqrsum 0
field min -nan
field max -nan
attr interpolationmode  none
attr title  "queueing time, histogram"
bin	-INF	0
bin	-0.5	0
bin	-0.46666666666667	0
bin	-0.43333333333333	0
bin	-0.4	0
bin	-0.36666666666667	0
bin	-0.33333333333333	0
bin	-0.3	0
bin	-0.26666666666667	0
bin	-0.23333333333333	0
bin	-0.2	0
bin	-0.16666666666667	0
bin	-0.13333333333333	0
bin	-0.1	0
bin	-0.066666666666667	0
bin	-0.033333333333333	0
bin	0	0
bin	0.033333333333333	0
bin	0.066666666666667	0
bin	0.1	0
bin	0.13333333333333	0
bin	0.16666666666667	0
bin	0.2	0
bin	0.23333333333333	0
bin	0.26666666666667	0
bin	0.3	0
bin	0.33333333333333	0
bin	0.36666666666667	0
bin	0.4	0
bin	0.43333333333333	0
bin	0.46666666666667	0
bin	0.5	0
scalar PacketBounce.etherSwitch2.eth[0].queue.pauseQueue 	dropPk:count 	0
attr interpolationmode  none
attr source  dropPkByQueue
attr title  "dropped packets, count"
scalar PacketBounce.etherSwitch2.eth[0].queue.pauseQueue 	dropPk:sum(packetBytes) 	0
attr interpolationmode  none
attr source  dropPkByQueue
attr title  "dropped packets, sum(packetBytes)"
scalar PacketBounce.etherSwitch2.eth[0].queue.pauseQueue 	rcvdPk:count 	0
attr interpolationmode  none
attr title  "received packets, count"
scalar PacketBounce.etherSwitch2.eth[0].queue.pauseQueue 	rcvdPk:sum(packetBytes) 	0
attr interpolationmode  none
attr title  "received packets, sum(packetBytes)"
scalar PacketBounce.etherSwitch2.eth[0].queue.passBackQueue 	queueLength:max 	0
attr interpolationmode  sample-hold
attr title  "queue length, max"
scalar PacketBounce.etherSwitch2.eth[0].queue.passBackQueue 	queueLength:timeavg 	0
attr interpolationmode  sample-hold
attr title  "queue length, timeavg"
statistic PacketBounce.etherSwitch2.eth[0].queue.passBackQueue 	queueingTime:histogram
field count 0
field mean -nan
field stddev -nan
field sum 0
field sqrsum 0
field min -nan
field max -nan
attr interpolationmode  none
attr title  "queueing time, histogram"
bin	-INF	0
bin	-0.5	0
bin	-0.46666666666667	0
bin	-0.43333333333333	0
bin	-0.4	0
bin	-0.36666666666667	0
bin	-0.33333333333333	0
bin	-0.3	0
bin	-0.26666666666667	0
bin	-0.23333333333333	0
bin	-0.2	0
bin	-0.16666666666667	0
bin	-0.13333333333333	0
bin	-0.1	0
bin	-0.066666666666667	0
bin	-0.033333333333333	0
bin	0	0
bin	0.033333333333333	0
bin	0.066666666666667	0
bin	0.1	0
bin	0.13333333333333	0
bin	0.16666666666667	0
bin	0.2	0
bin	0.23333333333333	0
bin	0.26666666666667	0
bin	0.3	0
bin	0.33333333333333	0
bin	0.36666666666667	0
bin	0.4	0
bin	0.43333333333333	0
bin	0.46666666666667	0
bin	0.5	0
scalar PacketBounce.etherSwitch2.eth[0].queue.passBackQueue 	dropPk:count 	0
attr interpolationmode  none
attr source  dropPkByQueue
attr title  "dropped packets, count"
scalar PacketBounce.etherSwitch2.eth[0].queue.passBackQueue 	dropPk:sum(packetBytes) 	0
attr interpolationmode  none
attr source  dropPkByQueue
attr title  "dropped packets, sum(packetBytes)"
scalar PacketBounce.etherSwitch2.eth[0].queue.passBackQueue 	rcvdPk:count 	0
attr interpolationmode  none
attr title  "received packets, count"
scalar PacketBounce.etherSwitch2.eth[0].queue.passBackQueue 	rcvdPk:sum(packetBytes) 	0
attr interpolationmode  none
attr title  "received packets, sum(packetBytes)"
scalar PacketBounce.etherSwitch2.eth[0].queue.dataQueue 	queueLength:max 	0
attr interpolationmode  sample-hold
attr title  "queue length, max"
scalar PacketBounce.etherSwitch2.eth[0].queue.dataQueue 	queueLength:timeavg 	0
attr interpolationmode  sample-hold
attr title  "queue length, timeavg"
statistic PacketBounce.etherSwitch2.eth[0].queue.dataQueue 	queueingTime:histogram
field count 0
field mean -nan
field stddev -nan
field sum 0
field sqrsum 0
field min -nan
field max -nan
attr interpolationmode  none
attr title  "queueing time, histogram"
bin	-INF	0
bin	-0.5	0
bin	-0.46666666666667	0
bin	-0.43333333333333	0
bin	-0.4	0
bin	-0.36666666666667	0
bin	-0.33333333333333	0
bin	-0.3	0
bin	-0.26666666666667	0
bin	-0.23333333333333	0
bin	-0.2	0
bin	-0.16666666666667	0
bin	-0.13333333333333	0
bin	-0.1	0
bin	-0.066666666666667	0
bin	-0.033333333333333	0
bin	0	0
bin	0.033333333333333	0
bin	0.066666666666667	0
bin	0.1	0
bin	0.13333333333333	0
bin	0.16666666666667	0
bin	0.2	0
bin	0.23333333333333	0
bin	0.26666666666667	0
bin	0.3	0
bin	0.33333333333333	0
bin	0.36666666666667	0
bin	0.4	0
bin	0.43333333333333	0
bin	0.46666666666667	0
bin	0.5	0
scalar PacketBounce.etherSwitch2.eth[0].queue.dataQueue 	dropPk:count 	0
attr interpolationmode  none
attr source  dropPkByQueue
attr title  "dropped packets, count"
scalar PacketBounce.etherSwitch2.eth[0].queue.dataQueue 	dropPk:sum(packetBytes) 	0
attr interpolationmode  none
attr source  dropPkByQueue
attr title  "dropped packets, sum(packetBytes)"
scalar PacketBounce.etherSwitch2.eth[0].queue.dataQueue 	rcvdPk:count 	0
attr interpolationmode  none
attr title  "received packets, count"
scalar PacketBounce.etherSwitch2.eth[0].queue.dataQueue 	rcvdPk:sum(packetBytes) 	0
attr interpolationmode  none
attr title  "received packets, sum(packetBytes)"
scalar PacketBounce.etherSwitch2.eth[0].mac 	"simulated time" 	0.838529736
scalar PacketBounce.etherSwitch2.eth[0].mac 	full-duplex 	1
scalar PacketBounce.etherSwitch2.eth[0].mac 	"frames/sec sent" 	0
scalar PacketBounce.etherSwitch2.eth[0].mac 	"frames/sec rcvd" 	2987.3716965
scalar PacketBounce.etherSwitch2.eth[0].mac 	"bits/sec sent" 	0
scalar PacketBounce.etherSwitch2.eth[0].mac 	"bits/sec rcvd" 	36278641.882296
scalar PacketBounce.etherSwitch2.eth[0].mac 	"rx channel idle (%)" 	96.353016632913
scalar PacketBounce.etherSwitch2.eth[0].mac 	"rx channel utilization (%)" 	3.6469833670872
scalar PacketBounce.etherSwitch2.eth[0].mac 	"rx channel collision (%)" 	0
scalar PacketBounce.etherSwitch2.eth[0].mac 	collisions 	0
scalar PacketBounce.etherSwitch2.eth[0].mac 	backoffs 	0
scalar PacketBounce.etherSwitch2.eth[0].mac 	droppedPkNotForUs:count 	0
attr interpolationmode  none
attr source  dropPkNotForUs
attr title  "packets dropped/not for us, count"
scalar PacketBounce.etherSwitch2.eth[0].mac 	droppedPkNotForUs:sum(packetBytes) 	0
attr interpolationmode  none
attr source  dropPkNotForUs
attr title  "packets dropped/not for us, sum(packetBytes)"
scalar PacketBounce.etherSwitch2.eth[0].mac 	droppedPkIfaceDown:count 	0
attr interpolationmode  none
attr source  dropPkIfaceDown
attr title  "packets dropped/interface down, count"
scalar PacketBounce.etherSwitch2.eth[0].mac 	droppedPkIfaceDown:sum(packetBytes) 	0
attr interpolationmode  none
attr source  dropPkIfaceDown
attr title  "packets dropped/interface down, sum(packetBytes)"
scalar PacketBounce.etherSwitch2.eth[0].mac 	droppedPkBitError:count 	0
attr interpolationmode  none
attr source  dropPkBitError
attr title  "packets dropped/bit error, count"
scalar PacketBounce.etherSwitch2.eth[0].mac 	droppedPkBitError:sum(packetBytes) 	0
attr interpolationmode  none
attr source  dropPkBitError
attr title  "packets dropped/bit error, sum(packetBytes)"
scalar PacketBounce.etherSwitch2.eth[0].mac 	rxPkFromHL:count 	0
attr interpolationmode  none
attr source  rxPkFromHL
attr title  "packet bytes from higher layer, count"
scalar PacketBounce.etherSwitch2.eth[0].mac 	rxPkFromHL:sum(packetBytes) 	0
attr interpolationmode  none
attr source  rxPkFromHL
attr title  "packet bytes from higher layer, sum(packetBytes)"
scalar PacketBounce.etherSwitch2.eth[0].mac 	rxPausePkUnits:count 	0
attr interpolationmode  none
attr title  "pause units received, count"
scalar PacketBounce.etherSwitch2.eth[0].mac 	rxPausePkUnits:sum 	0
attr interpolationmode  none
attr title  "pause units received, sum"
scalar PacketBounce.etherSwitch2.eth[0].mac 	txPausePkUnits:count 	0
attr interpolationmode  none
attr title  "pause units sent, count"
scalar PacketBounce.etherSwitch2.eth[0].mac 	txPausePkUnits:sum 	0
attr interpolationmode  none
attr title  "pause units sent, sum"
scalar PacketBounce.etherSwitch2.eth[0].mac 	rxPkOk:count 	2505
attr interpolationmode  none
attr source  rxPkOk
attr title  "packets received OK, count"
scalar PacketBounce.etherSwitch2.eth[0].mac 	rxPkOk:sum(packetBytes) 	3802590
attr interpolationmode  none
attr source  rxPkOk
attr title  "packets received OK, sum(packetBytes)"
scalar PacketBounce.etherSwitch2.eth[0].mac 	txPk:count 	0
attr interpolationmode  none
attr source  txPk
attr title  "packets transmitted, count"
scalar PacketBounce.etherSwitch2.eth[0].mac 	txPk:sum(packetBytes) 	0
attr interpolationmode  none
attr source  txPk
attr title  "packets transmitted, sum(packetBytes)"
scalar PacketBounce.etherSwitch2.eth[0].mac 	backoff:count 	0
attr interpolationmode  none
attr title  "backoff, count"
scalar PacketBounce.etherSwitch2.eth[0].mac 	collision:count 	0
attr interpolationmode  none
attr title  "collision, count"
scalar PacketBounce.etherSwitch2.eth[0].mac 	passedUpPk:count 	2505
attr interpolationmode  none
attr source  packetSentToUpper
attr title  "packets passed to higher layer, count"
scalar PacketBounce.etherSwitch2.eth[0].mac 	passedUpPk:sum(packetBytes) 	3802590
attr interpolationmode  none
attr source  packetSentToUpper
attr title  "packets passed to higher layer, sum(packetBytes)"
scalar PacketBounce.etherSwitch2.eth[1].queue.pauseQueue 	queueLength:max 	0
attr interpolationmode  sample-hold
attr title  "queue length, max"
scalar PacketBounce.etherSwitch2.eth[1].queue.pauseQueue 	queueLength:timeavg 	0
attr interpolationmode  sample-hold
attr title  "queue length, timeavg"
statistic PacketBounce.etherSwitch2.eth[1].queue.pauseQueue 	queueingTime:histogram
field count 0
field mean -nan
field stddev -nan
field sum 0
field sqrsum 0
field min -nan
field max -nan
attr interpolationmode  none
attr title  "queueing time, histogram"
bin	-INF	0
bin	-0.5	0
bin	-0.46666666666667	0
bin	-0.43333333333333	0
bin	-0.4	0
bin	-0.36666666666667	0
bin	-0.33333333333333	0
bin	-0.3	0
bin	-0.26666666666667	0
bin	-0.23333333333333	0
bin	-0.2	0
bin	-0.16666666666667	0
bin	-0.13333333333333	0
bin	-0.1	0
bin	-0.066666666666667	0
bin	-0.033333333333333	0
bin	0	0
bin	0.033333333333333	0
bin	0.066666666666667	0
bin	0.1	0
bin	0.13333333333333	0
bin	0.16666666666667	0
bin	0.2	0
bin	0.23333333333333	0
bin	0.26666666666667	0
bin	0.3	0
bin	0.33333333333333	0
bin	0.36666666666667	0
bin	0.4	0
bin	0.43333333333333	0
bin	0.46666666666667	0
bin	0.5	0
scalar PacketBounce.etherSwitch2.eth[1].queue.pauseQueue 	dropPk:count 	0
attr interpolationmode  none
attr source  dropPkByQueue
attr title  "dropped packets, count"
scalar PacketBounce.etherSwitch2.eth[1].queue.pauseQueue 	dropPk:sum(packetBytes) 	0
attr interpolationmode  none
attr source  dropPkByQueue
attr title  "dropped packets, sum(packetBytes)"
scalar PacketBounce.etherSwitch2.eth[1].queue.pauseQueue 	rcvdPk:count 	0
attr interpolationmode  none
attr title  "received packets, count"
scalar PacketBounce.etherSwitch2.eth[1].queue.pauseQueue 	rcvdPk:sum(packetBytes) 	0
attr interpolationmode  none
attr title  "received packets, sum(packetBytes)"
scalar PacketBounce.etherSwitch2.eth[1].queue.passBackQueue 	queueLength:max 	0
attr interpolationmode  sample-hold
attr title  "queue length, max"
scalar PacketBounce.etherSwitch2.eth[1].queue.passBackQueue 	queueLength:timeavg 	0
attr interpolationmode  sample-hold
attr title  "queue length, timeavg"
statistic PacketBounce.etherSwitch2.eth[1].queue.passBackQueue 	queueingTime:histogram
field count 0
field mean -nan
field stddev -nan
field sum 0
field sqrsum 0
field min -nan
field max -nan
attr interpolationmode  none
attr title  "queueing time, histogram"
bin	-INF	0
bin	-0.5	0
bin	-0.46666666666667	0
bin	-0.43333333333333	0
bin	-0.4	0
bin	-0.36666666666667	0
bin	-0.33333333333333	0
bin	-0.3	0
bin	-0.26666666666667	0
bin	-0.23333333333333	0
bin	-0.2	0
bin	-0.16666666666667	0
bin	-0.13333333333333	0
bin	-0.1	0
bin	-0.066666666666667	0
bin	-0.033333333333333	0
bin	0	0
bin	0.033333333333333	0
bin	0.066666666666667	0
bin	0.1	0
bin	0.13333333333333	0
bin	0.16666666666667	0
bin	0.2	0
bin	0.23333333333333	0
bin	0.26666666666667	0
bin	0.3	0
bin	0.33333333333333	0
bin	0.36666666666667	0
bin	0.4	0
bin	0.43333333333333	0
bin	0.46666666666667	0
bin	0.5	0
scalar PacketBounce.etherSwitch2.eth[1].queue.passBackQueue 	dropPk:count 	0
attr interpolationmode  none
attr source  dropPkByQueue
attr title  "dropped packets, count"
scalar PacketBounce.etherSwitch2.eth[1].queue.passBackQueue 	dropPk:sum(packetBytes) 	0
attr interpolationmode  none
attr source  dropPkByQueue
attr title  "dropped packets, sum(packetBytes)"
scalar PacketBounce.etherSwitch2.eth[1].queue.passBackQueue 	rcvdPk:count 	0
attr interpolationmode  none
attr title  "received packets, count"
scalar PacketBounce.etherSwitch2.eth[1].queue.passBackQueue 	rcvdPk:sum(packetBytes) 	0
attr interpolationmode  none
attr title  "received packets, sum(packetBytes)"
scalar PacketBounce.etherSwitch2.eth[1].queue.dataQueue 	queueLength:max 	1
attr interpolationmode  sample-hold
attr title  "queue length, max"
scalar PacketBounce.etherSwitch2.eth[1].queue.dataQueue 	queueLength:timeavg 	0
attr interpolationmode  sample-hold
attr title  "queue length, timeavg"
statistic PacketBounce.etherSwitch2.eth[1].queue.dataQueue 	queueingTime:histogram
field count 2505
field mean 0
field stddev 0
field sum 0
field sqrsum 0
field min 0
field max 0
attr interpolationmode  none
attr title  "queueing time, histogram"
bin	-INF	0
bin	-0.5	0
bin	-0.46666666666667	0
bin	-0.43333333333333	0
bin	-0.4	0
bin	-0.36666666666667	0
bin	-0.33333333333333	0
bin	-0.3	0
bin	-0.26666666666667	0
bin	-0.23333333333333	0
bin	-0.2	0
bin	-0.16666666666667	0
bin	-0.13333333333333	0
bin	-0.1	0
bin	-0.066666666666667	0
bin	-0.033333333333333	0
bin	0	2505
bin	0.033333333333333	0
bin	0.066666666666667	0
bin	0.1	0
bin	0.13333333333333	0
bin	0.16666666666667	0
bin	0.2	0
bin	0.23333333333333	0
bin	0.26666666666667	0
bin	0.3	0
bin	0.33333333333333	0
bin	0.36666666666667	0
bin	0.4	0
bin	0.43333333333333	0
bin	0.46666666666667	0
bin	0.5	0
scalar PacketBounce.etherSwitch2.eth[1].queue.dataQueue 	dropPk:count 	0
attr interpolationmode  none
attr source  dropPkByQueue
attr title  "dropped packets, count"
scalar PacketBounce.etherSwitch2.eth[1].queue.dataQueue 	dropPk:sum(packetBytes) 	0
attr interpolationmode  none
attr source  dropPkByQueue
attr title  "dropped packets, sum(packetBytes)"
scalar PacketBounce.etherSwitch2.eth[1].queue.dataQueue 	rcvdPk:count 	2505
attr interpolationmode  none
attr title  "received packets, count"
scalar PacketBounce.etherSwitch2.eth[1].queue.dataQueue 	rcvdPk:sum(packetBytes) 	3802590
attr interpolationmode  none
attr title  "received packets, sum(packetBytes)"
scalar PacketBounce.etherSwitch2.eth[1].mac 	"simulated time" 	0.838529736
scalar PacketBounce.etherSwitch2.eth[1].mac 	full-duplex 	1
scalar PacketBounce.etherSwitch2.eth[1].mac 	"frames/sec sent" 	2987.3716965
scalar PacketBounce.etherSwitch2.eth[1].mac 	"frames/sec rcvd" 	0
scalar PacketBounce.etherSwitch2.eth[1].mac 	"bits/sec sent" 	36278641.882296
scalar PacketBounce.etherSwitch2.eth[1].mac 	"bits/sec rcvd" 	0
scalar PacketBounce.etherSwitch2.eth[1].mac 	"rx channel idle (%)" 	100
scalar PacketBounce.etherSwitch2.eth[1].mac 	"rx channel utilization (%)" 	0
scalar PacketBounce.etherSwitch2.eth[1].mac 	"rx channel collision (%)" 	0
scalar PacketBounce.etherSwitch2.eth[1].mac 	collisions 	0
scalar PacketBounce.etherSwitch2.eth[1].mac 	backoffs 	0
scalar PacketBounce.etherSwitch2.eth[1].mac 	droppedPkNotForUs:count 	0
attr interpolationmode  none
attr source  dropPkNotForUs
attr title  "packets dropped/not for us, count"
scalar PacketBounce.etherSwitch2.eth[1].mac 	droppedPkNotForUs:sum(packetBytes) 	0
attr interpolationmode  none
attr source  dropPkNotForUs
attr title  "packets dropped/not for us, sum(packetBytes)"
scalar PacketBounce.etherSwitch2.eth[1].mac 	droppedPkIfaceDown:count 	0
attr interpolationmode  none
attr source  dropPkIfaceDown
attr title  "packets dropped/interface down, count"
scalar PacketBounce.etherSwitch2.eth[1].mac 	droppedPkIfaceDown:sum(packetBytes) 	0
attr interpolationmode  none
attr source  dropPkIfaceDown
attr title  "packets dropped/interface down, sum(packetBytes)"
scalar PacketBounce.etherSwitch2.eth[1].mac 	droppedPkBitError:count 	0
attr interpolationmode  none
attr source  dropPkBitError
attr title  "packets dropped/bit error, count"
scalar PacketBounce.etherSwitch2.eth[1].mac 	droppedPkBitError:sum(packetBytes) 	0
attr interpolationmode  none
attr source  dropPkBitError
attr title  "packets dropped/bit error, sum(packetBytes)"
scalar PacketBounce.etherSwitch2.eth[1].mac 	rxPkFromHL:count 	2505
attr interpolationmode  none
attr source  rxPkFromHL
attr title  "packet bytes from higher layer, count"
scalar PacketBounce.etherSwitch2.eth[1].mac 	rxPkFromHL:sum(packetBytes) 	3802590
attr interpolationmode  none
attr source  rxPkFromHL
attr title  "packet bytes from higher layer, sum(packetBytes)"
scalar PacketBounce.etherSwitch2.eth[1].mac 	rxPausePkUnits:count 	0
attr interpolationmode  none
attr title  "pause units received, count"
scalar PacketBounce.etherSwitch2.eth[1].mac 	rxPausePkUnits:sum 	0
attr interpolationmode  none
attr title  "pause units received, sum"
scalar PacketBounce.etherSwitch2.eth[1].mac 	txPausePkUnits:count 	0
attr interpolationmode  none
attr title  "pause units sent, count"
scalar PacketBounce.etherSwitch2.eth[1].mac 	txPausePkUnits:sum 	0
attr interpolationmode  none
attr title  "pause units sent, sum"
scalar PacketBounce.etherSwitch2.eth[1].mac 	rxPkOk:count 	0
attr interpolationmode  none
attr source  rxPkOk
attr title  "packets received OK, count"
scalar PacketBounce.etherSwitch2.eth[1].mac 	rxPkOk:sum(packetBytes) 	0
attr interpolationmode  none
attr source  rxPkOk
attr title  "packets received OK, sum(packetBytes)"
scalar PacketBounce.etherSwitch2.eth[1].mac 	txPk:count 	2505
attr interpolationmode  none
attr source  txPk
attr title  "packets transmitted, count"
scalar PacketBounce.etherSwitch2.eth[1].mac 	txPk:sum(packetBytes) 	3802590
attr interpolationmode  none
attr source  txPk
attr title  "packets transmitted, sum(packetBytes)"
scalar PacketBounce.etherSwitch2.eth[1].mac 	backoff:count 	0
attr interpolationmode  none
attr title  "backoff, count"
scalar PacketBounce.etherSwitch2.eth[1].mac 	collision:count 	0
attr interpolationmode  none
attr title  "collision, count"
scalar PacketBounce.etherSwitch2.eth[1].mac 	passedUpPk:count 	0
attr interpolationmode  none
attr source  packetSentToUpper
attr title  "packets passed to higher layer, count"
scalar PacketBounce.etherSwitch2.eth[1].mac 	passedUpPk:sum(packetBytes) 	0
attr interpolationmode  none
attr source  packetSentToUpper
attr title  "packets passed to higher layer, sum(packetBytes)"
scalar PacketBounce.etherSwitch3.relayUnit 	"passback frame frequency" 	0
scalar PacketBounce.etherSwitch3.relayUnit 	"processed frames" 	2505
scalar PacketBounce.etherSwitch3.relayUnit 	"discarded frames" 	0
statistic PacketBounce.etherSwitch3.relayUnit 	"Pass back hop distribution"
field count 0
field mean -nan
field stddev -nan
field sum 0
field sqrsum 0
field min -nan
field max -nan
attr type  int
bin	-INF	0
bin	-4	0
bin	-3	0
bin	-2	0
bin	-1	0
bin	0	0
bin	1	0
bin	2	0
bin	3	0
bin	4	0
statistic PacketBounce.etherSwitch3.relayUnit 	"Total hop num distribution"
field count 0
field mean -nan
field stddev -nan
field sum 0
field sqrsum 0
field min -nan
field max -nan
attr type  int
bin	-INF	0
bin	0	0
bin	1	0
bin	2	0
bin	3	0
bin	4	0
bin	5	0
bin	6	0
bin	7	0
bin	8	0
bin	9	0
bin	10	0
bin	11	0
bin	12	0
bin	13	0
bin	14	0
bin	15	0
bin	16	0
bin	17	0
bin	18	0
bin	19	0
bin	20	0
bin	21	0
bin	22	0
bin	23	0
bin	24	0
bin	25	0
bin	26	0
bin	27	0
bin	28	0
bin	29	0
bin	30	0
bin	31	0
bin	32	0
bin	33	0
bin	34	0
bin	35	0
bin	36	0
bin	37	0
bin	38	0
bin	39	0
bin	40	0
bin	41	0
bin	42	0
bin	43	0
bin	44	0
bin	45	0
bin	46	0
bin	47	0
bin	48	0
bin	49	0
bin	50	0
bin	51	0
bin	52	0
bin	53	0
bin	54	0
bin	55	0
bin	56	0
bin	57	0
bin	58	0
bin	59	0
bin	60	0
bin	61	0
bin	62	0
bin	63	0
bin	64	0
bin	65	0
bin	66	0
bin	67	0
bin	68	0
bin	69	0
bin	70	0
bin	71	0
bin	72	0
bin	73	0
bin	74	0
bin	75	0
bin	76	0
bin	77	0
bin	78	0
bin	79	0
bin	80	0
bin	81	0
bin	82	0
bin	83	0
bin	84	0
bin	85	0
bin	86	0
bin	87	0
bin	88	0
bin	89	0
bin	90	0
bin	91	0
bin	92	0
bin	93	0
bin	94	0
bin	95	0
bin	96	0
bin	97	0
bin	98	0
bin	99	0
bin	100	0
scalar PacketBounce.etherSwitch3.eth[0].queue.pauseQueue 	queueLength:max 	0
attr interpolationmode  sample-hold
attr title  "queue length, max"
scalar PacketBounce.etherSwitch3.eth[0].queue.pauseQueue 	queueLength:timeavg 	0
attr interpolationmode  sample-hold
attr title  "queue length, timeavg"
statistic PacketBounce.etherSwitch3.eth[0].queue.pauseQueue 	queueingTime:histogram
field count 0
field mean -nan
field stddev -nan
field sum 0
field sqrsum 0
field min -nan
field max -nan
attr interpolationmode  none
attr title  "queueing time, histogram"
bin	-INF	0
bin	-0.5	0
bin	-0.46666666666667	0
bin	-0.43333333333333	0
bin	-0.4	0
bin	-0.36666666666667	0
bin	-0.33333333333333	0
bin	-0.3	0
bin	-0.26666666666667	0
bin	-0.23333333333333	0
bin	-0.2	0
bin	-0.16666666666667	0
bin	-0.13333333333333	0
bin	-0.1	0
bin	-0.066666666666667	0
bin	-0.033333333333333	0
bin	0	0
bin	0.033333333333333	0
bin	0.066666666666667	0
bin	0.1	0
bin	0.13333333333333	0
bin	0.16666666666667	0
bin	0.2	0
bin	0.23333333333333	0
bin	0.26666666666667	0
bin	0.3	0
bin	0.33333333333333	0
bin	0.36666666666667	0
bin	0.4	0
bin	0.43333333333333	0
bin	0.46666666666667	0
bin	0.5	0
scalar PacketBounce.etherSwitch3.eth[0].queue.pauseQueue 	dropPk:count 	0
attr interpolationmode  none
attr source  dropPkByQueue
attr title  "dropped packets, count"
scalar PacketBounce.etherSwitch3.eth[0].queue.pauseQueue 	dropPk:sum(packetBytes) 	0
attr interpolationmode  none
attr source  dropPkByQueue
attr title  "dropped packets, sum(packetBytes)"
scalar PacketBounce.etherSwitch3.eth[0].queue.pauseQueue 	rcvdPk:count 	0
attr interpolationmode  none
attr title  "received packets, count"
scalar PacketBounce.etherSwitch3.eth[0].queue.pauseQueue 	rcvdPk:sum(packetBytes) 	0
attr interpolationmode  none
attr title  "received packets, sum(packetBytes)"
scalar PacketBounce.etherSwitch3.eth[0].queue.passBackQueue 	queueLength:max 	0
attr interpolationmode  sample-hold
attr title  "queue length, max"
scalar PacketBounce.etherSwitch3.eth[0].queue.passBackQueue 	queueLength:timeavg 	0
attr interpolationmode  sample-hold
attr title  "queue length, timeavg"
statistic PacketBounce.etherSwitch3.eth[0].queue.passBackQueue 	queueingTime:histogram
field count 0
field mean -nan
field stddev -nan
field sum 0
field sqrsum 0
field min -nan
field max -nan
attr interpolationmode  none
attr title  "queueing time, histogram"
bin	-INF	0
bin	-0.5	0
bin	-0.46666666666667	0
bin	-0.43333333333333	0
bin	-0.4	0
bin	-0.36666666666667	0
bin	-0.33333333333333	0
bin	-0.3	0
bin	-0.26666666666667	0
bin	-0.23333333333333	0
bin	-0.2	0
bin	-0.16666666666667	0
bin	-0.13333333333333	0
bin	-0.1	0
bin	-0.066666666666667	0
bin	-0.033333333333333	0
bin	0	0
bin	0.033333333333333	0
bin	0.066666666666667	0
bin	0.1	0
bin	0.13333333333333	0
bin	0.16666666666667	0
bin	0.2	0
bin	0.23333333333333	0
bin	0.26666666666667	0
bin	0.3	0
bin	0.33333333333333	0
bin	0.36666666666667	0
bin	0.4	0
bin	0.43333333333333	0
bin	0.46666666666667	0
bin	0.5	0
scalar PacketBounce.etherSwitch3.eth[0].queue.passBackQueue 	dropPk:count 	0
attr interpolationmode  none
attr source  dropPkByQueue
attr title  "dropped packets, count"
scalar PacketBounce.etherSwitch3.eth[0].queue.passBackQueue 	dropPk:sum(packetBytes) 	0
attr interpolationmode  none
attr source  dropPkByQueue
attr title  "dropped packets, sum(packetBytes)"
scalar PacketBounce.etherSwitch3.eth[0].queue.passBackQueue 	rcvdPk:count 	0
attr interpolationmode  none
attr title  "received packets, count"
scalar PacketBounce.etherSwitch3.eth[0].queue.passBackQueue 	rcvdPk:sum(packetBytes) 	0
attr interpolationmode  none
attr title  "received packets, sum(packetBytes)"
scalar PacketBounce.etherSwitch3.eth[0].queue.dataQueue 	queueLength:max 	0
attr interpolationmode  sample-hold
attr title  "queue length, max"
scalar PacketBounce.etherSwitch3.eth[0].queue.dataQueue 	queueLength:timeavg 	0
attr interpolationmode  sample-hold
attr title  "queue length, timeavg"
statistic PacketBounce.etherSwitch3.eth[0].queue.dataQueue 	queueingTime:histogram
field count 0
field mean -nan
field stddev -nan
field sum 0
field sqrsum 0
field min -nan
field max -nan
attr interpolationmode  none
attr title  "queueing time, histogram"
bin	-INF	0
bin	-0.5	0
bin	-0.46666666666667	0
bin	-0.43333333333333	0
bin	-0.4	0
bin	-0.36666666666667	0
bin	-0.33333333333333	0
bin	-0.3	0
bin	-0.26666666666667	0
bin	-0.23333333333333	0
bin	-0.2	0
bin	-0.16666666666667	0
bin	-0.13333333333333	0
bin	-0.1	0
bin	-0.066666666666667	0
bin	-0.033333333333333	0
bin	0	0
bin	0.033333333333333	0
bin	0.066666666666667	0
bin	0.1	0
bin	0.13333333333333	0
bin	0.16666666666667	0
bin	0.2	0
bin	0.23333333333333	0
bin	0.26666666666667	0
bin	0.3	0
bin	0.33333333333333	0
bin	0.36666666666667	0
bin	0.4	0
bin	0.43333333333333	0
bin	0.46666666666667	0
bin	0.5	0
scalar PacketBounce.etherSwitch3.eth[0].queue.dataQueue 	dropPk:count 	0
attr interpolationmode  none
attr source  dropPkByQueue
attr title  "dropped packets, count"
scalar PacketBounce.etherSwitch3.eth[0].queue.dataQueue 	dropPk:sum(packetBytes) 	0
attr interpolationmode  none
attr source  dropPkByQueue
attr title  "dropped packets, sum(packetBytes)"
scalar PacketBounce.etherSwitch3.eth[0].queue.dataQueue 	rcvdPk:count 	0
attr interpolationmode  none
attr title  "received packets, count"
scalar PacketBounce.etherSwitch3.eth[0].queue.dataQueue 	rcvdPk:sum(packetBytes) 	0
attr interpolationmode  none
attr title  "received packets, sum(packetBytes)"
scalar PacketBounce.etherSwitch3.eth[0].mac 	"simulated time" 	0.838529736
scalar PacketBounce.etherSwitch3.eth[0].mac 	full-duplex 	1
scalar PacketBounce.etherSwitch3.eth[0].mac 	"frames/sec sent" 	0
scalar PacketBounce.etherSwitch3.eth[0].mac 	"frames/sec rcvd" 	2987.3716965
scalar PacketBounce.etherSwitch3.eth[0].mac 	"bits/sec sent" 	0
scalar PacketBounce.etherSwitch3.eth[0].mac 	"bits/sec rcvd" 	36278641.882296
scalar PacketBounce.etherSwitch3.eth[0].mac 	"rx channel idle (%)" 	96.353016632913
scalar PacketBounce.etherSwitch3.eth[0].mac 	"rx channel utilization (%)" 	3.6469833670872
scalar PacketBounce.etherSwitch3.eth[0].mac 	"rx channel collision (%)" 	0
scalar PacketBounce.etherSwitch3.eth[0].mac 	collisions 	0
scalar PacketBounce.etherSwitch3.eth[0].mac 	backoffs 	0
scalar PacketBounce.etherSwitch3.eth[0].mac 	droppedPkNotForUs:count 	0
attr interpolationmode  none
attr source  dropPkNotForUs
attr title  "packets dropped/not for us, count"
scalar PacketBounce.etherSwitch3.eth[0].mac 	droppedPkNotForUs:sum(packetBytes) 	0
attr interpolationmode  none
attr source  dropPkNotForUs
attr title  "packets dropped/not for us, sum(packetBytes)"
scalar PacketBounce.etherSwitch3.eth[0].mac 	droppedPkIfaceDown:count 	0
attr interpolationmode  none
attr source  dropPkIfaceDown
attr title  "packets dropped/interface down, count"
scalar PacketBounce.etherSwitch3.eth[0].mac 	droppedPkIfaceDown:sum(packetBytes) 	0
attr interpolationmode  none
attr source  dropPkIfaceDown
attr title  "packets dropped/interface down, sum(packetBytes)"
scalar PacketBounce.etherSwitch3.eth[0].mac 	droppedPkBitError:count 	0
attr interpolationmode  none
attr source  dropPkBitError
attr title  "packets dropped/bit error, count"
scalar PacketBounce.etherSwitch3.eth[0].mac 	droppedPkBitError:sum(packetBytes) 	0
attr interpolationmode  none
attr source  dropPkBitError
attr title  "packets dropped/bit error, sum(packetBytes)"
scalar PacketBounce.etherSwitch3.eth[0].mac 	rxPkFromHL:count 	0
attr interpolationmode  none
attr source  rxPkFromHL
attr title  "packet bytes from higher layer, count"
scalar PacketBounce.etherSwitch3.eth[0].mac 	rxPkFromHL:sum(packetBytes) 	0
attr interpolationmode  none
attr source  rxPkFromHL
attr title  "packet bytes from higher layer, sum(packetBytes)"
scalar PacketBounce.etherSwitch3.eth[0].mac 	rxPausePkUnits:count 	0
attr interpolationmode  none
attr title  "pause units received, count"
scalar PacketBounce.etherSwitch3.eth[0].mac 	rxPausePkUnits:sum 	0
attr interpolationmode  none
attr title  "pause units received, sum"
scalar PacketBounce.etherSwitch3.eth[0].mac 	txPausePkUnits:count 	0
attr interpolationmode  none
attr title  "pause units sent, count"
scalar PacketBounce.etherSwitch3.eth[0].mac 	txPausePkUnits:sum 	0
attr interpolationmode  none
attr title  "pause units sent, sum"
scalar PacketBounce.etherSwitch3.eth[0].mac 	rxPkOk:count 	2505
attr interpolationmode  none
attr source  rxPkOk
attr title  "packets received OK, count"
scalar PacketBounce.etherSwitch3.eth[0].mac 	rxPkOk:sum(packetBytes) 	3802590
attr interpolationmode  none
attr source  rxPkOk
attr title  "packets received OK, sum(packetBytes)"
scalar PacketBounce.etherSwitch3.eth[0].mac 	txPk:count 	0
attr interpolationmode  none
attr source  txPk
attr title  "packets transmitted, count"
scalar PacketBounce.etherSwitch3.eth[0].mac 	txPk:sum(packetBytes) 	0
attr interpolationmode  none
attr source  txPk
attr title  "packets transmitted, sum(packetBytes)"
scalar PacketBounce.etherSwitch3.eth[0].mac 	backoff:count 	0
attr interpolationmode  none
attr title  "backoff, count"
scalar PacketBounce.etherSwitch3.eth[0].mac 	collision:count 	0
attr interpolationmode  none
attr title  "collision, count"
scalar PacketBounce.etherSwitch3.eth[0].mac 	passedUpPk:count 	2505
attr interpolationmode  none
attr source  packetSentToUpper
attr title  "packets passed to higher layer, count"
scalar PacketBounce.etherSwitch3.eth[0].mac 	passedUpPk:sum(packetBytes) 	3802590
attr interpolationmode  none
attr source  packetSentToUpper
attr title  "packets passed to higher layer, sum(packetBytes)"
scalar PacketBounce.etherSwitch3.eth[1].queue.pauseQueue 	queueLength:max 	0
attr interpolationmode  sample-hold
attr title  "queue length, max"
scalar PacketBounce.etherSwitch3.eth[1].queue.pauseQueue 	queueLength:timeavg 	0
attr interpolationmode  sample-hold
attr title  "queue length, timeavg"
statistic PacketBounce.etherSwitch3.eth[1].queue.pauseQueue 	queueingTime:histogram
field count 0
field mean -nan
field stddev -nan
field sum 0
field sqrsum 0
field min -nan
field max -nan
attr interpolationmode  none
attr title  "queueing time, histogram"
bin	-INF	0
bin	-0.5	0
bin	-0.46666666666667	0
bin	-0.43333333333333	0
bin	-0.4	0
bin	-0.36666666666667	0
bin	-0.33333333333333	0
bin	-0.3	0
bin	-0.26666666666667	0
bin	-0.23333333333333	0
bin	-0.2	0
bin	-0.16666666666667	0
bin	-0.13333333333333	0
bin	-0.1	0
bin	-0.066666666666667	0
bin	-0.033333333333333	0
bin	0	0
bin	0.033333333333333	0
bin	0.066666666666667	0
bin	0.1	0
bin	0.13333333333333	0
bin	0.16666666666667	0
bin	0.2	0
bin	0.23333333333333	0
bin	0.26666666666667	0
bin	0.3	0
bin	0.33333333333333	0
bin	0.36666666666667	0
bin	0.4	0
bin	0.43333333333333	0
bin	0.46666666666667	0
bin	0.5	0
scalar PacketBounce.etherSwitch3.eth[1].queue.pauseQueue 	dropPk:count 	0
attr interpolationmode  none
attr source  dropPkByQueue
attr title  "dropped packets, count"
scalar PacketBounce.etherSwitch3.eth[1].queue.pauseQueue 	dropPk:sum(packetBytes) 	0
attr interpolationmode  none
attr source  dropPkByQueue
attr title  "dropped packets, sum(packetBytes)"
scalar PacketBounce.etherSwitch3.eth[1].queue.pauseQueue 	rcvdPk:count 	0
attr interpolationmode  none
attr title  "received packets, count"
scalar PacketBounce.etherSwitch3.eth[1].queue.pauseQueue 	rcvdPk:sum(packetBytes) 	0
attr interpolationmode  none
attr title  "received packets, sum(packetBytes)"
scalar PacketBounce.etherSwitch3.eth[1].queue.passBackQueue 	queueLength:max 	0
attr interpolationmode  sample-hold
attr title  "queue length, max"
scalar PacketBounce.etherSwitch3.eth[1].queue.passBackQueue 	queueLength:timeavg 	0
attr interpolationmode  sample-hold
attr title  "queue length, timeavg"
statistic PacketBounce.etherSwitch3.eth[1].queue.passBackQueue 	queueingTime:histogram
field count 0
field mean -nan
field stddev -nan
field sum 0
field sqrsum 0
field min -nan
field max -nan
attr interpolationmode  none
attr title  "queueing time, histogram"
bin	-INF	0
bin	-0.5	0
bin	-0.46666666666667	0
bin	-0.43333333333333	0
bin	-0.4	0
bin	-0.36666666666667	0
bin	-0.33333333333333	0
bin	-0.3	0
bin	-0.26666666666667	0
bin	-0.23333333333333	0
bin	-0.2	0
bin	-0.16666666666667	0
bin	-0.13333333333333	0
bin	-0.1	0
bin	-0.066666666666667	0
bin	-0.033333333333333	0
bin	0	0
bin	0.033333333333333	0
bin	0.066666666666667	0
bin	0.1	0
bin	0.13333333333333	0
bin	0.16666666666667	0
bin	0.2	0
bin	0.23333333333333	0
bin	0.26666666666667	0
bin	0.3	0
bin	0.33333333333333	0
bin	0.36666666666667	0
bin	0.4	0
bin	0.43333333333333	0
bin	0.46666666666667	0
bin	0.5	0
scalar PacketBounce.etherSwitch3.eth[1].queue.passBackQueue 	dropPk:count 	0
attr interpolationmode  none
attr source  dropPkByQueue
attr title  "dropped packets, count"
scalar PacketBounce.etherSwitch3.eth[1].queue.passBackQueue 	dropPk:sum(packetBytes) 	0
attr interpolationmode  none
attr source  dropPkByQueue
attr title  "dropped packets, sum(packetBytes)"
scalar PacketBounce.etherSwitch3.eth[1].queue.passBackQueue 	rcvdPk:count 	0
attr interpolationmode  none
attr title  "received packets, count"
scalar PacketBounce.etherSwitch3.eth[1].queue.passBackQueue 	rcvdPk:sum(packetBytes) 	0
attr interpolationmode  none
attr title  "received packets, sum(packetBytes)"
scalar PacketBounce.etherSwitch3.eth[1].queue.dataQueue 	queueLength:max 	1
attr interpolationmode  sample-hold
attr title  "queue length, max"
scalar PacketBounce.etherSwitch3.eth[1].queue.dataQueue 	queueLength:timeavg 	0
attr interpolationmode  sample-hold
attr title  "queue length, timeavg"
statistic PacketBounce.etherSwitch3.eth[1].queue.dataQueue 	queueingTime:histogram
field count 2505
field mean 0
field stddev 0
field sum 0
field sqrsum 0
field min 0
field max 0
attr interpolationmode  none
attr title  "queueing time, histogram"
bin	-INF	0
bin	-0.5	0
bin	-0.46666666666667	0
bin	-0.43333333333333	0
bin	-0.4	0
bin	-0.36666666666667	0
bin	-0.33333333333333	0
bin	-0.3	0
bin	-0.26666666666667	0
bin	-0.23333333333333	0
bin	-0.2	0
bin	-0.16666666666667	0
bin	-0.13333333333333	0
bin	-0.1	0
bin	-0.066666666666667	0
bin	-0.033333333333333	0
bin	0	2505
bin	0.033333333333333	0
bin	0.066666666666667	0
bin	0.1	0
bin	0.13333333333333	0
bin	0.16666666666667	0
bin	0.2	0
bin	0.23333333333333	0
bin	0.26666666666667	0
bin	0.3	0
bin	0.33333333333333	0
bin	0.36666666666667	0
bin	0.4	0
bin	0.43333333333333	0
bin	0.46666666666667	0
bin	0.5	0
scalar PacketBounce.etherSwitch3.eth[1].queue.dataQueue 	dropPk:count 	0
attr interpolationmode  none
attr source  dropPkByQueue
attr title  "dropped packets, count"
scalar PacketBounce.etherSwitch3.eth[1].queue.dataQueue 	dropPk:sum(packetBytes) 	0
attr interpolationmode  none
attr source  dropPkByQueue
attr title  "dropped packets, sum(packetBytes)"
scalar PacketBounce.etherSwitch3.eth[1].queue.dataQueue 	rcvdPk:count 	2505
attr interpolationmode  none
attr title  "received packets, count"
scalar PacketBounce.etherSwitch3.eth[1].queue.dataQueue 	rcvdPk:sum(packetBytes) 	3802590
attr interpolationmode  none
attr title  "received packets, sum(packetBytes)"
scalar PacketBounce.etherSwitch3.eth[1].mac 	"simulated time" 	0.838529736
scalar PacketBounce.etherSwitch3.eth[1].mac 	full-duplex 	1
scalar PacketBounce.etherSwitch3.eth[1].mac 	"frames/sec sent" 	2987.3716965
scalar PacketBounce.etherSwitch3.eth[1].mac 	"frames/sec rcvd" 	0
scalar PacketBounce.etherSwitch3.eth[1].mac 	"bits/sec sent" 	36278641.882296
scalar PacketBounce.etherSwitch3.eth[1].mac 	"bits/sec rcvd" 	0
scalar PacketBounce.etherSwitch3.eth[1].mac 	"rx channel idle (%)" 	100
scalar PacketBounce.etherSwitch3.eth[1].mac 	"rx channel utilization (%)" 	0
scalar PacketBounce.etherSwitch3.eth[1].mac 	"rx channel collision (%)" 	0
scalar PacketBounce.etherSwitch3.eth[1].mac 	collisions 	0
scalar PacketBounce.etherSwitch3.eth[1].mac 	backoffs 	0
scalar PacketBounce.etherSwitch3.eth[1].mac 	droppedPkNotForUs:count 	0
attr interpolationmode  none
attr source  dropPkNotForUs
attr title  "packets dropped/not for us, count"
scalar PacketBounce.etherSwitch3.eth[1].mac 	droppedPkNotForUs:sum(packetBytes) 	0
attr interpolationmode  none
attr source  dropPkNotForUs
attr title  "packets dropped/not for us, sum(packetBytes)"
scalar PacketBounce.etherSwitch3.eth[1].mac 	droppedPkIfaceDown:count 	0
attr interpolationmode  none
attr source  dropPkIfaceDown
attr title  "packets dropped/interface down, count"
scalar PacketBounce.etherSwitch3.eth[1].mac 	droppedPkIfaceDown:sum(packetBytes) 	0
attr interpolationmode  none
attr source  dropPkIfaceDown
attr title  "packets dropped/interface down, sum(packetBytes)"
scalar PacketBounce.etherSwitch3.eth[1].mac 	droppedPkBitError:count 	0
attr interpolationmode  none
attr source  dropPkBitError
attr title  "packets dropped/bit error, count"
scalar PacketBounce.etherSwitch3.eth[1].mac 	droppedPkBitError:sum(packetBytes) 	0
attr interpolationmode  none
attr source  dropPkBitError
attr title  "packets dropped/bit error, sum(packetBytes)"
scalar PacketBounce.etherSwitch3.eth[1].mac 	rxPkFromHL:count 	2505
attr interpolationmode  none
attr source  rxPkFromHL
attr title  "packet bytes from higher layer, count"
scalar PacketBounce.etherSwitch3.eth[1].mac 	rxPkFromHL:sum(packetBytes) 	3802590
attr interpolationmode  none
attr source  rxPkFromHL
attr title  "packet bytes from higher layer, sum(packetBytes)"
scalar PacketBounce.etherSwitch3.eth[1].mac 	rxPausePkUnits:count 	0
attr interpolationmode  none
attr title  "pause units received, count"
scalar PacketBounce.etherSwitch3.eth[1].mac 	rxPausePkUnits:sum 	0
attr interpolationmode  none
attr title  "pause units received, sum"
scalar PacketBounce.etherSwitch3.eth[1].mac 	txPausePkUnits:count 	0
attr interpolationmode  none
attr title  "pause units sent, count"
scalar PacketBounce.etherSwitch3.eth[1].mac 	txPausePkUnits:sum 	0
attr interpolationmode  none
attr title  "pause units sent, sum"
scalar PacketBounce.etherSwitch3.eth[1].mac 	rxPkOk:count 	0
attr interpolationmode  none
attr source  rxPkOk
attr title  "packets received OK, count"
scalar PacketBounce.etherSwitch3.eth[1].mac 	rxPkOk:sum(packetBytes) 	0
attr interpolationmode  none
attr source  rxPkOk
attr title  "packets received OK, sum(packetBytes)"
scalar PacketBounce.etherSwitch3.eth[1].mac 	txPk:count 	2505
attr interpolationmode  none
attr source  txPk
attr title  "packets transmitted, count"
scalar PacketBounce.etherSwitch3.eth[1].mac 	txPk:sum(packetBytes) 	3802590
attr interpolationmode  none
attr source  txPk
attr title  "packets transmitted, sum(packetBytes)"
scalar PacketBounce.etherSwitch3.eth[1].mac 	backoff:count 	0
attr interpolationmode  none
attr title  "backoff, count"
scalar PacketBounce.etherSwitch3.eth[1].mac 	collision:count 	0
attr interpolationmode  none
attr title  "collision, count"
scalar PacketBounce.etherSwitch3.eth[1].mac 	passedUpPk:count 	0
attr interpolationmode  none
attr source  packetSentToUpper
attr title  "packets passed to higher layer, count"
scalar PacketBounce.etherSwitch3.eth[1].mac 	passedUpPk:sum(packetBytes) 	0
attr interpolationmode  none
attr source  packetSentToUpper
attr title  "packets passed to higher layer, sum(packetBytes)"
scalar PacketBounce.etherSwitch4.relayUnit 	"passback frame frequency" 	0
scalar PacketBounce.etherSwitch4.relayUnit 	"processed frames" 	3852
scalar PacketBounce.etherSwitch4.relayUnit 	"discarded frames" 	0
statistic PacketBounce.etherSwitch4.relayUnit 	"Pass back hop distribution"
field count 0
field mean -nan
field stddev -nan
field sum 0
field sqrsum 0
field min -nan
field max -nan
attr type  int
bin	-INF	0
bin	-4	0
bin	-3	0
bin	-2	0
bin	-1	0
bin	0	0
bin	1	0
bin	2	0
bin	3	0
bin	4	0
statistic PacketBounce.etherSwitch4.relayUnit 	"Total hop num distribution"
field count 0
field mean -nan
field stddev -nan
field sum 0
field sqrsum 0
field min -nan
field max -nan
attr type  int
bin	-INF	0
bin	0	0
bin	1	0
bin	2	0
bin	3	0
bin	4	0
bin	5	0
bin	6	0
bin	7	0
bin	8	0
bin	9	0
bin	10	0
bin	11	0
bin	12	0
bin	13	0
bin	14	0
bin	15	0
bin	16	0
bin	17	0
bin	18	0
bin	19	0
bin	20	0
bin	21	0
bin	22	0
bin	23	0
bin	24	0
bin	25	0
bin	26	0
bin	27	0
bin	28	0
bin	29	0
bin	30	0
bin	31	0
bin	32	0
bin	33	0
bin	34	0
bin	35	0
bin	36	0
bin	37	0
bin	38	0
bin	39	0
bin	40	0
bin	41	0
bin	42	0
bin	43	0
bin	44	0
bin	45	0
bin	46	0
bin	47	0
bin	48	0
bin	49	0
bin	50	0
bin	51	0
bin	52	0
bin	53	0
bin	54	0
bin	55	0
bin	56	0
bin	57	0
bin	58	0
bin	59	0
bin	60	0
bin	61	0
bin	62	0
bin	63	0
bin	64	0
bin	65	0
bin	66	0
bin	67	0
bin	68	0
bin	69	0
bin	70	0
bin	71	0
bin	72	0
bin	73	0
bin	74	0
bin	75	0
bin	76	0
bin	77	0
bin	78	0
bin	79	0
bin	80	0
bin	81	0
bin	82	0
bin	83	0
bin	84	0
bin	85	0
bin	86	0
bin	87	0
bin	88	0
bin	89	0
bin	90	0
bin	91	0
bin	92	0
bin	93	0
bin	94	0
bin	95	0
bin	96	0
bin	97	0
bin	98	0
bin	99	0
bin	100	0
scalar PacketBounce.etherSwitch4.eth[0].queue.pauseQueue 	queueLength:max 	0
attr interpolationmode  sample-hold
attr title  "queue length, max"
scalar PacketBounce.etherSwitch4.eth[0].queue.pauseQueue 	queueLength:timeavg 	0
attr interpolationmode  sample-hold
attr title  "queue length, timeavg"
statistic PacketBounce.etherSwitch4.eth[0].queue.pauseQueue 	queueingTime:histogram
field count 0
field mean -nan
field stddev -nan
field sum 0
field sqrsum 0
field min -nan
field max -nan
attr interpolationmode  none
attr title  "queueing time, histogram"
bin	-INF	0
bin	-0.5	0
bin	-0.46666666666667	0
bin	-0.43333333333333	0
bin	-0.4	0
bin	-0.36666666666667	0
bin	-0.33333333333333	0
bin	-0.3	0
bin	-0.26666666666667	0
bin	-0.23333333333333	0
bin	-0.2	0
bin	-0.16666666666667	0
bin	-0.13333333333333	0
bin	-0.1	0
bin	-0.066666666666667	0
bin	-0.033333333333333	0
bin	0	0
bin	0.033333333333333	0
bin	0.066666666666667	0
bin	0.1	0
bin	0.13333333333333	0
bin	0.16666666666667	0
bin	0.2	0
bin	0.23333333333333	0
bin	0.26666666666667	0
bin	0.3	0
bin	0.33333333333333	0
bin	0.36666666666667	0
bin	0.4	0
bin	0.43333333333333	0
bin	0.46666666666667	0
bin	0.5	0
scalar PacketBounce.etherSwitch4.eth[0].queue.pauseQueue 	dropPk:count 	0
attr interpolationmode  none
attr source  dropPkByQueue
attr title  "dropped packets, count"
scalar PacketBounce.etherSwitch4.eth[0].queue.pauseQueue 	dropPk:sum(packetBytes) 	0
attr interpolationmode  none
attr source  dropPkByQueue
attr title  "dropped packets, sum(packetBytes)"
scalar PacketBounce.etherSwitch4.eth[0].queue.pauseQueue 	rcvdPk:count 	0
attr interpolationmode  none
attr title  "received packets, count"
scalar PacketBounce.etherSwitch4.eth[0].queue.pauseQueue 	rcvdPk:sum(packetBytes) 	0
attr interpolationmode  none
attr title  "received packets, sum(packetBytes)"
scalar PacketBounce.etherSwitch4.eth[0].queue.passBackQueue 	queueLength:max 	0
attr interpolationmode  sample-hold
attr title  "queue length, max"
scalar PacketBounce.etherSwitch4.eth[0].queue.passBackQueue 	queueLength:timeavg 	0
attr interpolationmode  sample-hold
attr title  "queue length, timeavg"
statistic PacketBounce.etherSwitch4.eth[0].queue.passBackQueue 	queueingTime:histogram
field count 0
field mean -nan
field stddev -nan
field sum 0
field sqrsum 0
field min -nan
field max -nan
attr interpolationmode  none
attr title  "queueing time, histogram"
bin	-INF	0
bin	-0.5	0
bin	-0.46666666666667	0
bin	-0.43333333333333	0
bin	-0.4	0
bin	-0.36666666666667	0
bin	-0.33333333333333	0
bin	-0.3	0
bin	-0.26666666666667	0
bin	-0.23333333333333	0
bin	-0.2	0
bin	-0.16666666666667	0
bin	-0.13333333333333	0
bin	-0.1	0
bin	-0.066666666666667	0
bin	-0.033333333333333	0
bin	0	0
bin	0.033333333333333	0
bin	0.066666666666667	0
bin	0.1	0
bin	0.13333333333333	0
bin	0.16666666666667	0
bin	0.2	0
bin	0.23333333333333	0
bin	0.26666666666667	0
bin	0.3	0
bin	0.33333333333333	0
bin	0.36666666666667	0
bin	0.4	0
bin	0.43333333333333	0
bin	0.46666666666667	0
bin	0.5	0
scalar PacketBounce.etherSwitch4.eth[0].queue.passBackQueue 	dropPk:count 	0
attr interpolationmode  none
attr source  dropPkByQueue
attr title  "dropped packets, count"
scalar PacketBounce.etherSwitch4.eth[0].queue.passBackQueue 	dropPk:sum(packetBytes) 	0
attr interpolationmode  none
attr source  dropPkByQueue
attr title  "dropped packets, sum(packetBytes)"
scalar PacketBounce.etherSwitch4.eth[0].queue.passBackQueue 	rcvdPk:count 	0
attr interpolationmode  none
attr title  "received packets, count"
scalar PacketBounce.etherSwitch4.eth[0].queue.passBackQueue 	rcvdPk:sum(packetBytes) 	0
attr interpolationmode  none
attr title  "received packets, sum(packetBytes)"
scalar PacketBounce.etherSwitch4.eth[0].queue.dataQueue 	queueLength:max 	0
attr interpolationmode  sample-hold
attr title  "queue length, max"
scalar PacketBounce.etherSwitch4.eth[0].queue.dataQueue 	queueLength:timeavg 	0
attr interpolationmode  sample-hold
attr title  "queue length, timeavg"
statistic PacketBounce.etherSwitch4.eth[0].queue.dataQueue 	queueingTime:histogram
field count 0
field mean -nan
field stddev -nan
field sum 0
field sqrsum 0
field min -nan
field max -nan
attr interpolationmode  none
attr title  "queueing time, histogram"
bin	-INF	0
bin	-0.5	0
bin	-0.46666666666667	0
bin	-0.43333333333333	0
bin	-0.4	0
bin	-0.36666666666667	0
bin	-0.33333333333333	0
bin	-0.3	0
bin	-0.26666666666667	0
bin	-0.23333333333333	0
bin	-0.2	0
bin	-0.16666666666667	0
bin	-0.13333333333333	0
bin	-0.1	0
bin	-0.066666666666667	0
bin	-0.033333333333333	0
bin	0	0
bin	0.033333333333333	0
bin	0.066666666666667	0
bin	0.1	0
bin	0.13333333333333	0
bin	0.16666666666667	0
bin	0.2	0
bin	0.23333333333333	0
bin	0.26666666666667	0
bin	0.3	0
bin	0.33333333333333	0
bin	0.36666666666667	0
bin	0.4	0
bin	0.43333333333333	0
bin	0.46666666666667	0
bin	0.5	0
scalar PacketBounce.etherSwitch4.eth[0].queue.dataQueue 	dropPk:count 	0
attr interpolationmode  none
attr source  dropPkByQueue
attr title  "dropped packets, count"
scalar PacketBounce.etherSwitch4.eth[0].queue.dataQueue 	dropPk:sum(packetBytes) 	0
attr interpolationmode  none
attr source  dropPkByQueue
attr title  "dropped packets, sum(packetBytes)"
scalar PacketBounce.etherSwitch4.eth[0].queue.dataQueue 	rcvdPk:count 	0
attr interpolationmode  none
attr title  "received packets, count"
scalar PacketBounce.etherSwitch4.eth[0].queue.dataQueue 	rcvdPk:sum(packetBytes) 	0
attr interpolationmode  none
attr title  "received packets, sum(packetBytes)"
scalar PacketBounce.etherSwitch4.eth[0].mac 	"simulated time" 	0.838529736
scalar PacketBounce.etherSwitch4.eth[0].mac 	full-duplex 	1
scalar PacketBounce.etherSwitch4.eth[0].mac 	"frames/sec sent" 	0
scalar PacketBounce.etherSwitch4.eth[0].mac 	"frames/sec rcvd" 	2987.3716965
scalar PacketBounce.etherSwitch4.eth[0].mac 	"bits/sec sent" 	0
scalar PacketBounce.etherSwitch4.eth[0].mac 	"bits/sec rcvd" 	36278641.882296
scalar PacketBounce.etherSwitch4.eth[0].mac 	"rx channel idle (%)" 	96.353016632913
scalar PacketBounce.etherSwitch4.eth[0].mac 	"rx channel utilization (%)" 	3.6469833670872
scalar PacketBounce.etherSwitch4.eth[0].mac 	"rx channel collision (%)" 	0
scalar PacketBounce.etherSwitch4.eth[0].mac 	collisions 	0
scalar PacketBounce.etherSwitch4.eth[0].mac 	backoffs 	0
scalar PacketBounce.etherSwitch4.eth[0].mac 	droppedPkNotForUs:count 	0
attr interpolationmode  none
attr source  dropPkNotForUs
attr title  "packets dropped/not for us, count"
scalar PacketBounce.etherSwitch4.eth[0].mac 	droppedPkNotForUs:sum(packetBytes) 	0
attr interpolationmode  none
attr source  dropPkNotForUs
attr title  "packets dropped/not for us, sum(packetBytes)"
scalar PacketBounce.etherSwitch4.eth[0].mac 	droppedPkIfaceDown:count 	0
attr interpolationmode  none
attr source  dropPkIfaceDown
attr title  "packets dropped/interface down, count"
scalar PacketBounce.etherSwitch4.eth[0].mac 	droppedPkIfaceDown:sum(packetBytes) 	0
attr interpolationmode  none
attr source  dropPkIfaceDown
attr title  "packets dropped/interface down, sum(packetBytes)"
scalar PacketBounce.etherSwitch4.eth[0].mac 	droppedPkBitError:count 	0
attr interpolationmode  none
attr source  dropPkBitError
attr title  "packets dropped/bit error, count"
scalar PacketBounce.etherSwitch4.eth[0].mac 	droppedPkBitError:sum(packetBytes) 	0
attr interpolationmode  none
attr source  dropPkBitError
attr title  "packets dropped/bit error, sum(packetBytes)"
scalar PacketBounce.etherSwitch4.eth[0].mac 	rxPkFromHL:count 	0
attr interpolationmode  none
attr source  rxPkFromHL
attr title  "packet bytes from higher layer, count"
scalar PacketBounce.etherSwitch4.eth[0].mac 	rxPkFromHL:sum(packetBytes) 	0
attr interpolationmode  none
attr source  rxPkFromHL
attr title  "packet bytes from higher layer, sum(packetBytes)"
scalar PacketBounce.etherSwitch4.eth[0].mac 	rxPausePkUnits:count 	0
attr interpolationmode  none
attr title  "pause units received, count"
scalar PacketBounce.etherSwitch4.eth[0].mac 	rxPausePkUnits:sum 	0
attr interpolationmode  none
attr title  "pause units received, sum"
scalar PacketBounce.etherSwitch4.eth[0].mac 	txPausePkUnits:count 	0
attr interpolationmode  none
attr title  "pause units sent, count"
scalar PacketBounce.etherSwitch4.eth[0].mac 	txPausePkUnits:sum 	0
attr interpolationmode  none
attr title  "pause units sent, sum"
scalar PacketBounce.etherSwitch4.eth[0].mac 	rxPkOk:count 	2505
attr interpolationmode  none
attr source  rxPkOk
attr title  "packets received OK, count"
scalar PacketBounce.etherSwitch4.eth[0].mac 	rxPkOk:sum(packetBytes) 	3802590
attr interpolationmode  none
attr source  rxPkOk
attr title  "packets received OK, sum(packetBytes)"
scalar PacketBounce.etherSwitch4.eth[0].mac 	txPk:count 	0
attr interpolationmode  none
attr source  txPk
attr title  "packets transmitted, count"
scalar PacketBounce.etherSwitch4.eth[0].mac 	txPk:sum(packetBytes) 	0
attr interpolationmode  none
attr source  txPk
attr title  "packets transmitted, sum(packetBytes)"
scalar PacketBounce.etherSwitch4.eth[0].mac 	backoff:count 	0
attr interpolationmode  none
attr title  "backoff, count"
scalar PacketBounce.etherSwitch4.eth[0].mac 	collision:count 	0
attr interpolationmode  none
attr title  "collision, count"
scalar PacketBounce.etherSwitch4.eth[0].mac 	passedUpPk:count 	2505
attr interpolationmode  none
attr source  packetSentToUpper
attr title  "packets passed to higher layer, count"
scalar PacketBounce.etherSwitch4.eth[0].mac 	passedUpPk:sum(packetBytes) 	3802590
attr interpolationmode  none
attr source  packetSentToUpper
attr title  "packets passed to higher layer, sum(packetBytes)"
scalar PacketBounce.etherSwitch4.eth[1].queue.pauseQueue 	queueLength:max 	0
attr interpolationmode  sample-hold
attr title  "queue length, max"
scalar PacketBounce.etherSwitch4.eth[1].queue.pauseQueue 	queueLength:timeavg 	0
attr interpolationmode  sample-hold
attr title  "queue length, timeavg"
statistic PacketBounce.etherSwitch4.eth[1].queue.pauseQueue 	queueingTime:histogram
field count 0
field mean -nan
field stddev -nan
field sum 0
field sqrsum 0
field min -nan
field max -nan
attr interpolationmode  none
attr title  "queueing time, histogram"
bin	-INF	0
bin	-0.5	0
bin	-0.46666666666667	0
bin	-0.43333333333333	0
bin	-0.4	0
bin	-0.36666666666667	0
bin	-0.33333333333333	0
bin	-0.3	0
bin	-0.26666666666667	0
bin	-0.23333333333333	0
bin	-0.2	0
bin	-0.16666666666667	0
bin	-0.13333333333333	0
bin	-0.1	0
bin	-0.066666666666667	0
bin	-0.033333333333333	0
bin	0	0
bin	0.033333333333333	0
bin	0.066666666666667	0
bin	0.1	0
bin	0.13333333333333	0
bin	0.16666666666667	0
bin	0.2	0
bin	0.23333333333333	0
bin	0.26666666666667	0
bin	0.3	0
bin	0.33333333333333	0
bin	0.36666666666667	0
bin	0.4	0
bin	0.43333333333333	0
bin	0.46666666666667	0
bin	0.5	0
scalar PacketBounce.etherSwitch4.eth[1].queue.pauseQueue 	dropPk:count 	0
attr interpolationmode  none
attr source  dropPkByQueue
attr title  "dropped packets, count"
scalar PacketBounce.etherSwitch4.eth[1].queue.pauseQueue 	dropPk:sum(packetBytes) 	0
attr interpolationmode  none
attr source  dropPkByQueue
attr title  "dropped packets, sum(packetBytes)"
scalar PacketBounce.etherSwitch4.eth[1].queue.pauseQueue 	rcvdPk:count 	0
attr interpolationmode  none
attr title  "received packets, count"
scalar PacketBounce.etherSwitch4.eth[1].queue.pauseQueue 	rcvdPk:sum(packetBytes) 	0
attr interpolationmode  none
attr title  "received packets, sum(packetBytes)"
scalar PacketBounce.etherSwitch4.eth[1].queue.passBackQueue 	queueLength:max 	1
attr interpolationmode  sample-hold
attr title  "queue length, max"
scalar PacketBounce.etherSwitch4.eth[1].queue.passBackQueue 	queueLength:timeavg 	0.019502421080509
attr interpolationmode  sample-hold
attr title  "queue length, timeavg"
statistic PacketBounce.etherSwitch4.eth[1].queue.passBackQueue 	queueingTime:histogram
field count 1347
field mean 1.2140579064588e-05
field stddev 8.7780346404687e-07
field sum 0.01635336
field sqrsum 1.9957640544e-07
field min 0
field max 1.2204e-05
attr interpolationmode  none
attr title  "queueing time, histogram"
bin	-INF	0
bin	-0.499987796	0
bin	-0.46665446266667	0
bin	-0.43332112933333	0
bin	-0.399987796	0
bin	-0.36665446266667	0
bin	-0.33332112933333	0
bin	-0.299987796	0
bin	-0.26665446266667	0
bin	-0.23332112933333	0
bin	-0.199987796	0
bin	-0.16665446266667	0
bin	-0.13332112933333	0
bin	-0.099987796	0
bin	-0.066654462666667	0
bin	-0.033321129333333	7
bin	1.2204000000016e-05	1340
bin	0.033345537333333	0
bin	0.066678870666667	0
bin	0.100012204	0
bin	0.13334553733333	0
bin	0.16667887066667	0
bin	0.200012204	0
bin	0.23334553733333	0
bin	0.26667887066667	0
bin	0.300012204	0
bin	0.33334553733333	0
bin	0.36667887066667	0
bin	0.400012204	0
bin	0.43334553733333	0
bin	0.46667887066667	0
bin	0.500012204	0
scalar PacketBounce.etherSwitch4.eth[1].queue.passBackQueue 	dropPk:count 	0
attr interpolationmode  none
attr source  dropPkByQueue
attr title  "dropped packets, count"
scalar PacketBounce.etherSwitch4.eth[1].queue.passBackQueue 	dropPk:sum(packetBytes) 	0
attr interpolationmode  none
attr source  dropPkByQueue
attr title  "dropped packets, sum(packetBytes)"
scalar PacketBounce.etherSwitch4.eth[1].queue.passBackQueue 	rcvdPk:count 	1347
attr interpolationmode  none
attr title  "received packets, count"
scalar PacketBounce.etherSwitch4.eth[1].queue.passBackQueue 	rcvdPk:sum(packetBytes) 	2044746
attr interpolationmode  none
attr title  "received packets, sum(packetBytes)"
scalar PacketBounce.etherSwitch4.eth[1].queue.dataQueue 	queueLength:max 	137
attr interpolationmode  sample-hold
attr title  "queue length, max"
scalar PacketBounce.etherSwitch4.eth[1].queue.dataQueue 	queueLength:timeavg 	2.7445660627114
attr interpolationmode  sample-hold
attr title  "queue length, timeavg"
statistic PacketBounce.etherSwitch4.eth[1].queue.dataQueue 	queueingTime:histogram
field count 2505
field mean 0.00091872265708583
field stddev 0.0010582580495799
field sum 2.301400256
field sqrsum 0.00491860344736
field min 0
field max 0.003383504
attr interpolationmode  none
attr title  "queueing time, histogram"
bin	-INF	0
bin	-0.5	0
bin	-0.46666666666667	0
bin	-0.43333333333333	0
bin	-0.4	0
bin	-0.36666666666667	0
bin	-0.33333333333333	0
bin	-0.3	0
bin	-0.26666666666667	0
bin	-0.23333333333333	0
bin	-0.2	0
bin	-0.16666666666667	0
bin	-0.13333333333333	0
bin	-0.1	0
bin	-0.066666666666667	0
bin	-0.033333333333333	0
bin	0	2505
bin	0.033333333333333	0
bin	0.066666666666667	0
bin	0.1	0
bin	0.13333333333333	0
bin	0.16666666666667	0
bin	0.2	0
bin	0.23333333333333	0
bin	0.26666666666667	0
bin	0.3	0
bin	0.33333333333333	0
bin	0.36666666666667	0
bin	0.4	0
bin	0.43333333333333	0
bin	0.46666666666667	0
bin	0.5	0
scalar PacketBounce.etherSwitch4.eth[1].queue.dataQueue 	dropPk:count 	0
attr interpolationmode  none
attr source  dropPkByQueue
attr title  "dropped packets, count"
scalar PacketBounce.etherSwitch4.eth[1].queue.dataQueue 	dropPk:sum(packetBytes) 	0
attr interpolationmode  none
attr source  dropPkByQueue
attr title  "dropped packets, sum(packetBytes)"
scalar PacketBounce.etherSwitch4.eth[1].queue.dataQueue 	rcvdPk:count 	2505
attr interpolationmode  none
attr title  "received packets, count"
scalar PacketBounce.etherSwitch4.eth[1].queue.dataQueue 	rcvdPk:sum(packetBytes) 	3802590
attr interpolationmode  none
attr title  "received packets, sum(packetBytes)"
scalar PacketBounce.etherSwitch4.eth[1].mac 	"simulated time" 	0.838529736
scalar PacketBounce.etherSwitch4.eth[1].mac 	full-duplex 	1
scalar PacketBounce.etherSwitch4.eth[1].mac 	"frames/sec sent" 	4593.7548003664
scalar PacketBounce.etherSwitch4.eth[1].mac 	"frames/sec rcvd" 	1606.3831038665
scalar PacketBounce.etherSwitch4.eth[1].mac 	"bits/sec sent" 	55786558.29565
scalar PacketBounce.etherSwitch4.eth[1].mac 	"bits/sec rcvd" 	19507916.413354
scalar PacketBounce.etherSwitch4.eth[1].mac 	"rx channel idle (%)" 	98.0389275068
scalar PacketBounce.etherSwitch4.eth[1].mac 	"rx channel utilization (%)" 	1.9610724932002
[...]
statistic PacketBounce.sender3.queue.pauseQueue 	queueingTime:histogram
field count 0
field mean -nan
field stddev -nan
field sum 0
field sqrsum 0
field min -nan
field max -nan
attr interpolationmode  none
attr title  "queueing time, histogram"
bin	-INF	0
bin	-0.5	0
bin	-0.46666666666667	0
bin	-0.43333333333333	0
bin	-0.4	0
bin	-0.36666666666667	0
bin	-0.33333333333333	0
bin	-0.3	0
bin	-0.26666666666667	0
bin	-0.23333333333333	0
bin	-0.2	0
bin	-0.16666666666667	0
bin	-0.13333333333333	0
bin	-0.1	0
bin	-0.066666666666667	0
bin	-0.033333333333333	0
bin	0	0
bin	0.033333333333333	0
bin	0.066666666666667	0
bin	0.1	0
bin	0.13333333333333	0
bin	0.16666666666667	0
bin	0.2	0
bin	0.23333333333333	0
bin	0.26666666666667	0
bin	0.3	0
bin	0.33333333333333	0
bin	0.36666666666667	0
bin	0.4	0
bin	0.43333333333333	0
bin	0.46666666666667	0
bin	0.5	0
scalar PacketBounce.sender3.queue.pauseQueue 	dropPk:count 	0
attr interpolationmode  none
attr source  dropPkByQueue
attr title  "dropped packets, count"
scalar PacketBounce.sender3.queue.pauseQueue 	dropPk:sum(packetBytes) 	0
attr interpolationmode  none
attr source  dropPkByQueue
attr title  "dropped packets, sum(packetBytes)"
scalar PacketBounce.sender3.queue.pauseQueue 	rcvdPk:count 	0
attr interpolationmode  none
attr title  "received packets, count"
scalar PacketBounce.sender3.queue.pauseQueue 	rcvdPk:sum(packetBytes) 	0
attr interpolationmode  none
attr title  "received packets, sum(packetBytes)"
scalar PacketBounce.sender3.queue.passBackQueue 	queueLength:max 	0
attr interpolationmode  sample-hold
attr title  "queue length, max"
scalar PacketBounce.sender3.queue.passBackQueue 	queueLength:timeavg 	0
attr interpolationmode  sample-hold
attr title  "queue length, timeavg"
statistic PacketBounce.sender3.queue.passBackQueue 	queueingTime:histogram
field count 0
field mean -nan
field stddev -nan
field sum 0
field sqrsum 0
field min -nan
field max -nan
attr interpolationmode  none
attr title  "queueing time, histogram"
bin	-INF	0
bin	-0.5	0
bin	-0.46666666666667	0
bin	-0.43333333333333	0
bin	-0.4	0
bin	-0.36666666666667	0
bin	-0.33333333333333	0
bin	-0.3	0
bin	-0.26666666666667	0
bin	-0.23333333333333	0
bin	-0.2	0
bin	-0.16666666666667	0
bin	-0.13333333333333	0
bin	-0.1	0
bin	-0.066666666666667	0
bin	-0.033333333333333	0
bin	0	0
bin	0.033333333333333	0
bin	0.066666666666667	0
bin	0.1	0
bin	0.13333333333333	0
bin	0.16666666666667	0
bin	0.2	0
bin	0.23333333333333	0
bin	0.26666666666667	0
bin	0.3	0
bin	0.33333333333333	0
bin	0.36666666666667	0
bin	0.4	0
bin	0.43333333333333	0
bin	0.46666666666667	0
bin	0.5	0
scalar PacketBounce.sender3.queue.passBackQueue 	dropPk:count 	0
attr interpolationmode  none
attr source  dropPkByQueue
attr title  "dropped packets, count"
scalar PacketBounce.sender3.queue.passBackQueue 	dropPk:sum(packetBytes) 	0
attr interpolationmode  none
attr source  dropPkByQueue
attr title  "dropped packets, sum(packetBytes)"
scalar PacketBounce.sender3.queue.passBackQueue 	rcvdPk:count 	0
attr interpolationmode  none
attr title  "received packets, count"
scalar PacketBounce.sender3.queue.passBackQueue 	rcvdPk:sum(packetBytes) 	0
attr interpolationmode  none
attr title  "received packets, sum(packetBytes)"
scalar PacketBounce.sender3.queue.dataQueue 	queueLength:max 	94
attr interpolationmode  sample-hold
attr title  "queue length, max"
scalar PacketBounce.sender3.queue.dataQueue 	queueLength:timeavg 	1.7204398819316
attr interpolationmode  sample-hold
attr title  "queue length, timeavg"
statistic PacketBounce.sender3.queue.dataQueue 	queueingTime:histogram
field count 2505
field mean 0.00057590419161677
field stddev 0.0003332843980543
field sum 1.44264
field sqrsum 0.00110896296192
field min 0
field max 0.001151904
attr interpolationmode  none
attr title  "queueing time, histogram"
bin	-INF	0
bin	-0.000114	0
bin	-9.88e-05	0
bin	-8.36e-05	0
bin	-6.84e-05	0
bin	-5.32e-05	0
bin	-3.8e-05	0
bin	-2.28e-05	0
bin	-7.6e-06	20
bin	7.6e-06	30
bin	2.28e-05	35
bin	3.8e-05	35
bin	5.32e-05	30
bin	6.84e-05	35
bin	8.36e-05	30
bin	9.88e-05	35
bin	0.000114	35
bin	0.0001292	30
bin	0.0001444	35
bin	0.0001596	30
bin	0.0001748	35
bin	0.00019	35
bin	0.0002052	30
bin	0.0002204	35
bin	0.0002356	30
bin	0.0002508	35
bin	0.000266	35
bin	0.0002812	30
bin	0.0002964	35
bin	0.0003116	30
bin	0.0003268	35
bin	0.000342	1760
scalar PacketBounce.sender3.queue.dataQueue 	dropPk:count 	0
attr interpolationmode  none
attr source  dropPkByQueue
attr title  "dropped packets, count"
scalar PacketBounce.sender3.queue.dataQueue 	dropPk:sum(packetBytes) 	0
attr interpolationmode  none
attr source  dropPkByQueue
attr title  "dropped packets, sum(packetBytes)"
scalar PacketBounce.sender3.queue.dataQueue 	rcvdPk:count 	2505
attr interpolationmode  none
attr title  "received packets, count"
scalar PacketBounce.sender3.queue.dataQueue 	rcvdPk:sum(packetBytes) 	3802590
attr interpolationmode  none
attr title  "received packets, sum(packetBytes)"
scalar PacketBounce.sender3.mac 	"simulated time" 	0.838529736
scalar PacketBounce.sender3.mac 	full-duplex 	1
scalar PacketBounce.sender3.mac 	"frames/sec sent" 	2987.3716965
scalar PacketBounce.sender3.mac 	"frames/sec rcvd" 	0
scalar PacketBounce.sender3.mac 	"bits/sec sent" 	36278641.882296
scalar PacketBounce.sender3.mac 	"bits/sec rcvd" 	0
scalar PacketBounce.sender3.mac 	"rx channel idle (%)" 	100
scalar PacketBounce.sender3.mac 	"rx channel utilization (%)" 	0
scalar PacketBounce.sender3.mac 	"rx channel collision (%)" 	0
scalar PacketBounce.sender3.mac 	collisions 	0
scalar PacketBounce.sender3.mac 	backoffs 	0
scalar PacketBounce.sender3.mac 	droppedPkNotForUs:count 	0
attr interpolationmode  none
attr source  dropPkNotForUs
attr title  "packets dropped/not for us, count"
scalar PacketBounce.sender3.mac 	droppedPkNotForUs:sum(packetBytes) 	0
attr interpolationmode  none
attr source  dropPkNotForUs
attr title  "packets dropped/not for us, sum(packetBytes)"
scalar PacketBounce.sender3.mac 	droppedPkIfaceDown:count 	0
attr interpolationmode  none
attr source  dropPkIfaceDown
attr title  "packets dropped/interface down, count"
scalar PacketBounce.sender3.mac 	droppedPkIfaceDown:sum(packetBytes) 	0
attr interpolationmode  none
attr source  dropPkIfaceDown
attr title  "packets dropped/interface down, sum(packetBytes)"
scalar PacketBounce.sender3.mac 	droppedPkBitError:count 	0
attr interpolationmode  none
attr source  dropPkBitError
attr title  "packets dropped/bit error, count"
scalar PacketBounce.sender3.mac 	droppedPkBitError:sum(packetBytes) 	0
attr interpolationmode  none
attr source  dropPkBitError
attr title  "packets dropped/bit error, sum(packetBytes)"
scalar PacketBounce.sender3.mac 	rxPkFromHL:count 	2505
attr interpolationmode  none
attr source  rxPkFromHL
attr title  "packet bytes from higher layer, count"
scalar PacketBounce.sender3.mac 	rxPkFromHL:sum(packetBytes) 	3802590
attr interpolationmode  none
attr source  rxPkFromHL
attr title  "packet bytes from higher layer, sum(packetBytes)"
scalar PacketBounce.sender3.mac 	rxPausePkUnits:count 	0
attr interpolationmode  none
attr title  "pause units received, count"
scalar PacketBounce.sender3.mac 	rxPausePkUnits:sum 	0
attr interpolationmode  none
attr title  "pause units received, sum"
scalar PacketBounce.sender3.mac 	txPausePkUnits:count 	0
attr interpolationmode  none
attr title  "pause units sent, count"
scalar PacketBounce.sender3.mac 	txPausePkUnits:sum 	0
attr interpolationmode  none
attr title  "pause units sent, sum"
scalar PacketBounce.sender3.mac 	rxPkOk:count 	0
attr interpolationmode  none
attr source  rxPkOk
attr title  "packets received OK, count"
scalar PacketBounce.sender3.mac 	rxPkOk:sum(packetBytes) 	0
attr interpolationmode  none
attr source  rxPkOk
attr title  "packets received OK, sum(packetBytes)"
scalar PacketBounce.sender3.mac 	txPk:count 	2505
attr interpolationmode  none
attr source  txPk
attr title  "packets transmitted, count"
scalar PacketBounce.sender3.mac 	txPk:sum(packetBytes) 	3802590
attr interpolationmode  none
attr source  txPk
attr title  "packets transmitted, sum(packetBytes)"
scalar PacketBounce.sender3.mac 	backoff:count 	0
attr interpolationmode  none
attr title  "backoff, count"
scalar PacketBounce.sender3.mac 	collision:count 	0
attr interpolationmode  none
attr title  "collision, count"
scalar PacketBounce.sender3.mac 	passedUpPk:count 	0
attr interpolationmode  none
attr source  packetSentToUpper
attr title  "packets passed to higher layer, count"
scalar PacketBounce.sender3.mac 	passedUpPk:sum(packetBytes) 	0
attr interpolationmode  none
attr source  packetSentToUpper
attr title  "packets passed to higher layer, sum(packetBytes)"
scalar PacketBounce.receiver.app 	rcvdPk:count 	7515
attr interpolationmode  none
attr source  rcvdPk
attr title  "packets received, count"
scalar PacketBounce.receiver.app 	rcvdPk:sum(packetBytes) 	11272500
attr interpolationmode  none
attr source  rcvdPk
attr title  "packets received, sum(packetBytes)"
statistic PacketBounce.receiver.app 	endToEndDelay:histogram
field count 7515
field mean 0.006789336
field stddev 0.0053655222928595
field sum 51.02186004
field sqrsum 0.56272381583298
field min 4.9032e-05
field max 0.015641256
attr interpolationmode  none
attr source  messageAge(rcvdPk)
attr title  "end-to-end delay, histogram"
attr unit  s
bin	-INF	0
bin	-0.000395016	0
bin	-0.0003358096	0
bin	-0.0002766032	0
bin	-0.0002173968	0
bin	-0.0001581904	0
bin	-9.8984e-05	0
bin	-3.97776e-05	0
bin	1.94288e-05	20
bin	7.86352e-05	30
bin	0.0001378416	35
bin	0.000197048	30
bin	0.0002562544	30
bin	0.0003154608	40
bin	0.0003746672	30
bin	0.0004338736	51
bin	0.00049308	62
bin	0.0005522864	80
bin	0.0006114928	80
bin	0.0006706992	74
bin	0.0007299056	83
bin	0.000789112	76
bin	0.0008483184	78
bin	0.0009075248	81
bin	0.0009667312	76
bin	0.0010259376	77
bin	0.001085144	67
bin	0.0011443504	71
bin	0.0012035568	83
bin	0.0012627632	65
bin	0.0013219696	73
bin	0.001381176	6123
scalar PacketBounce.receiver.app 	sentPk:count 	0
attr interpolationmode  none
attr source  sentPk
attr title  "packets sent, count"
scalar PacketBounce.receiver.app 	sentPk:sum(packetBytes) 	0
attr interpolationmode  none
attr source  sentPk
attr title  "packets sent, sum(packetBytes)"
scalar PacketBounce.receiver.encap 	pauseSent:count 	0
attr title  "pause sent, count"
scalar PacketBounce.receiver.encap 	pauseSent:sum 	0
attr title  "pause sent, sum"
scalar PacketBounce.receiver.encap 	decapPk:count 	7515
attr interpolationmode  none
attr source  decapPk
attr title  "packets decapsulated, count"
scalar PacketBounce.receiver.encap 	decapPk:sum(packetBytes) 	11272500
attr interpolationmode  none
attr source  decapPk
attr title  "packets decapsulated, sum(packetBytes)"
scalar PacketBounce.receiver.encap 	encapPk:count 	0
attr interpolationmode  none
attr source  encapPk
attr title  "packets encapsulated, count"
scalar PacketBounce.receiver.encap 	encapPk:sum(packetBytes) 	0
attr interpolationmode  none
attr source  encapPk
attr title  "packets encapsulated, sum(packetBytes)"
scalar PacketBounce.receiver.queue.pauseQueue 	queueLength:max 	0
attr interpolationmode  sample-hold
attr title  "queue length, max"
scalar PacketBounce.receiver.queue.pauseQueue 	queueLength:timeavg 	0
attr interpolationmode  sample-hold
attr title  "queue length, timeavg"
statistic PacketBounce.receiver.queue.pauseQueue 	queueingTime:histogram
field count 0
field mean -nan
field stddev -nan
field sum 0
field sqrsum 0
field min -nan
field max -nan
attr interpolationmode  none
attr title  "queueing time, histogram"
bin	-INF	0
bin	-0.5	0
bin	-0.46666666666667	0
bin	-0.43333333333333	0
bin	-0.4	0
bin	-0.36666666666667	0
bin	-0.33333333333333	0
bin	-0.3	0
bin	-0.26666666666667	0
bin	-0.23333333333333	0
bin	-0.2	0
bin	-0.16666666666667	0
bin	-0.13333333333333	0
bin	-0.1	0
bin	-0.066666666666667	0
bin	-0.033333333333333	0
bin	0	0
bin	0.033333333333333	0
bin	0.066666666666667	0
bin	0.1	0
bin	0.13333333333333	0
bin	0.16666666666667	0
bin	0.2	0
bin	0.23333333333333	0
bin	0.26666666666667	0
bin	0.3	0
bin	0.33333333333333	0
bin	0.36666666666667	0
bin	0.4	0
bin	0.43333333333333	0
bin	0.46666666666667	0
bin	0.5	0
scalar PacketBounce.receiver.queue.pauseQueue 	dropPk:count 	0
attr interpolationmode  none
attr source  dropPkByQueue
attr title  "dropped packets, count"
scalar PacketBounce.receiver.queue.pauseQueue 	dropPk:sum(packetBytes) 	0
attr interpolationmode  none
attr source  dropPkByQueue
attr title  "dropped packets, sum(packetBytes)"
scalar PacketBounce.receiver.queue.pauseQueue 	rcvdPk:count 	0
attr interpolationmode  none
attr title  "received packets, count"
scalar PacketBounce.receiver.queue.pauseQueue 	rcvdPk:sum(packetBytes) 	0
attr interpolationmode  none
attr title  "received packets, sum(packetBytes)"
scalar PacketBounce.receiver.queue.passBackQueue 	queueLength:max 	0
attr interpolationmode  sample-hold
attr title  "queue length, max"
scalar PacketBounce.receiver.queue.passBackQueue 	queueLength:timeavg 	0
attr interpolationmode  sample-hold
attr title  "queue length, timeavg"
statistic PacketBounce.receiver.queue.passBackQueue 	queueingTime:histogram
field count 0
field mean -nan
field stddev -nan
field sum 0
field sqrsum 0
field min -nan
field max -nan
attr interpolationmode  none
attr title  "queueing time, histogram"
bin	-INF	0
bin	-0.5	0
bin	-0.46666666666667	0
bin	-0.43333333333333	0
bin	-0.4	0
bin	-0.36666666666667	0
bin	-0.33333333333333	0
bin	-0.3	0
bin	-0.26666666666667	0
bin	-0.23333333333333	0
bin	-0.2	0
bin	-0.16666666666667	0
bin	-0.13333333333333	0
bin	-0.1	0
bin	-0.066666666666667	0
bin	-0.033333333333333	0
bin	0	0
bin	0.033333333333333	0
bin	0.066666666666667	0
bin	0.1	0
bin	0.13333333333333	0
bin	0.16666666666667	0
bin	0.2	0
bin	0.23333333333333	0
bin	0.26666666666667	0
bin	0.3	0
bin	0.33333333333333	0
bin	0.36666666666667	0
bin	0.4	0
bin	0.43333333333333	0
bin	0.46666666666667	0
bin	0.5	0
scalar PacketBounce.receiver.queue.passBackQueue 	dropPk:count 	0
attr interpolationmode  none
attr source  dropPkByQueue
attr title  "dropped packets, count"
scalar PacketBounce.receiver.queue.passBackQueue 	dropPk:sum(packetBytes) 	0
attr interpolationmode  none
attr source  dropPkByQueue
attr title  "dropped packets, sum(packetBytes)"
scalar PacketBounce.receiver.queue.passBackQueue 	rcvdPk:count 	0
attr interpolationmode  none
attr title  "received packets, count"
scalar PacketBounce.receiver.queue.passBackQueue 	rcvdPk:sum(packetBytes) 	0
attr interpolationmode  none
attr title  "received packets, sum(packetBytes)"
scalar PacketBounce.receiver.queue.dataQueue 	queueLength:max 	0
attr interpolationmode  sample-hold
attr title  "queue length, max"
scalar PacketBounce.receiver.queue.dataQueue 	queueLength:timeavg 	0
attr interpolationmode  sample-hold
attr title  "queue length, timeavg"
statistic PacketBounce.receiver.queue.dataQueue 	queueingTime:histogram
field count 0
field mean -nan
field stddev -nan
field sum 0
field sqrsum 0
field min -nan
field max -nan
attr interpolationmode  none
attr title  "queueing time, histogram"
bin	-INF	0
bin	-0.5	0
bin	-0.46666666666667	0
bin	-0.43333333333333	0
bin	-0.4	0
bin	-0.36666666666667	0
bin	-0.33333333333333	0
bin	-0.3	0
bin	-0.26666666666667	0
bin	-0.23333333333333	0
bin	-0.2	0
bin	-0.16666666666667	0
bin	-0.13333333333333	0
bin	-0.1	0
bin	-0.066666666666667	0
bin	-0.033333333333333	0
bin	0	0
bin	0.033333333333333	0
bin	0.066666666666667	0
bin	0.1	0
bin	0.13333333333333	0
bin	0.16666666666667	0
bin	0.2	0
bin	0.23333333333333	0
bin	0.26666666666667	0
bin	0.3	0
bin	0.33333333333333	0
bin	0.36666666666667	0
bin	0.4	0
bin	0.43333333333333	0
bin	0.46666666666667	0
bin	0.5	0
scalar PacketBounce.receiver.queue.dataQueue 	dropPk:count 	0
attr interpolationmode  none
attr source  dropPkByQueue
attr title  "dropped packets, count"
scalar PacketBounce.receiver.queue.dataQueue 	dropPk:sum(packetBytes) 	0
attr interpolationmode  none
attr source  dropPkByQueue
attr title  "dropped packets, sum(packetBytes)"
scalar PacketBounce.receiver.queue.dataQueue 	rcvdPk:count 	0
attr interpolationmode  none
attr title  "received packets, count"
scalar PacketBounce.receiver.queue.dataQueue 	rcvdPk:sum(packetBytes) 	0
attr interpolationmode  none
attr title  "received packets, sum(packetBytes)"
scalar PacketBounce.receiver.mac 	"simulated time" 	0.838529736
scalar PacketBounce.receiver.mac 	full-duplex 	1
scalar PacketBounce.receiver.mac 	"frames/sec sent" 	0
scalar PacketBounce.receiver.mac 	"frames/sec rcvd" 	8962.1150894999
scalar PacketBounce.receiver.mac 	"bits/sec sent" 	0
scalar PacketBounce.receiver.mac 	"bits/sec rcvd" 	108835925.64689
scalar PacketBounce.receiver.mac 	"rx channel idle (%)" 	89.059049898738
scalar PacketBounce.receiver.mac 	"rx channel utilization (%)" 	10.940950101262
scalar PacketBounce.receiver.mac 	"rx channel collision (%)" 	0
scalar PacketBounce.receiver.mac 	collisions 	0
scalar PacketBounce.receiver.mac 	backoffs 	0
scalar PacketBounce.receiver.mac 	droppedPkNotForUs:count 	0
attr interpolationmode  none
attr source  dropPkNotForUs
attr title  "packets dropped/not for us, count"
scalar PacketBounce.receiver.mac 	droppedPkNotForUs:sum(packetBytes) 	0
attr interpolationmode  none
attr source  dropPkNotForUs
attr title  "packets dropped/not for us, sum(packetBytes)"
scalar PacketBounce.receiver.mac 	droppedPkIfaceDown:count 	0
attr interpolationmode  none
attr source  dropPkIfaceDown
attr title  "packets dropped/interface down, count"
scalar PacketBounce.receiver.mac 	droppedPkIfaceDown:sum(packetBytes) 	0
attr interpolationmode  none
attr source  dropPkIfaceDown
attr title  "packets dropped/interface down, sum(packetBytes)"
scalar PacketBounce.receiver.mac 	droppedPkBitError:count 	0
attr interpolationmode  none
attr source  dropPkBitError
attr title  "packets dropped/bit error, count"
scalar PacketBounce.receiver.mac 	droppedPkBitError:sum(packetBytes) 	0
attr interpolationmode  none
attr source  dropPkBitError
attr title  "packets dropped/bit error, sum(packetBytes)"
scalar PacketBounce.receiver.mac 	rxPkFromHL:count 	0
attr interpolationmode  none
attr source  rxPkFromHL
attr title  "packet bytes from higher layer, count"
scalar PacketBounce.receiver.mac 	rxPkFromHL:sum(packetBytes) 	0
attr interpolationmode  none
attr source  rxPkFromHL
attr title  "packet bytes from higher layer, sum(packetBytes)"
scalar PacketBounce.receiver.mac 	rxPausePkUnits:count 	0
attr interpolationmode  none
attr title  "pause units received, count"
scalar PacketBounce.receiver.mac 	rxPausePkUnits:sum 	0
attr interpolationmode  none
attr title  "pause units received, sum"
scalar PacketBounce.receiver.mac 	txPausePkUnits:count 	0
attr interpolationmode  none
attr title  "pause units sent, count"
scalar PacketBounce.receiver.mac 	txPausePkUnits:sum 	0
attr interpolationmode  none
attr title  "pause units sent, sum"
scalar PacketBounce.receiver.mac 	rxPkOk:count 	7515
attr interpolationmode  none
attr source  rxPkOk
attr title  "packets received OK, count"
scalar PacketBounce.receiver.mac 	rxPkOk:sum(packetBytes) 	11407770
attr interpolationmode  none
attr source  rxPkOk
attr title  "packets received OK, sum(packetBytes)"
scalar PacketBounce.receiver.mac 	txPk:count 	0
attr interpolationmode  none
attr source  txPk
attr title  "packets transmitted, count"
scalar PacketBounce.receiver.mac 	txPk:sum(packetBytes) 	0
attr interpolationmode  none
attr source  txPk
attr title  "packets transmitted, sum(packetBytes)"
scalar PacketBounce.receiver.mac 	backoff:count 	0
attr interpolationmode  none
attr title  "backoff, count"
scalar PacketBounce.receiver.mac 	collision:count 	0
attr interpolationmode  none
attr title  "collision, count"
scalar PacketBounce.receiver.mac 	passedUpPk:count 	7515
attr interpolationmode  none
attr source  packetSentToUpper
attr title  "packets passed to higher layer, count"
scalar PacketBounce.receiver.mac 	passedUpPk:sum(packetBytes) 	11407770
attr interpolationmode  none
attr source  packetSentToUpper
attr title  "packets passed to higher layer, sum(packetBytes)"
